/*---------------------------------------------------------------------------*\
| =========                 |                                                 |
| \\      /  F ield         | OpenFOAM: The Open Source CFD Toolbox           |
|  \\    /   O peration     | Version:  2206                                  |
|   \\  /    A nd           | Website:  www.openfoam.com                      |
|    \\/     M anipulation  |                                                 |
\*---------------------------------------------------------------------------*/
Build  : _8993af73-20221106 OPENFOAM=2206 patch=221104 version=2206
Arch   : "LSB;label=32;scalar=64"
Exec   : simpleFoam -parallel
Date   : Jul 11 2023
Time   : 11:52:13
Host   : PC
PID    : 12952
I/O    : uncollated
Case   : /home/daksh-pc/Openfoam2206-PC-linux/DA_BASE_CASES/simpleFoam_pressureDriven
nProcs : 4
Hosts  :
(
    (PC 4)
)
Pstream initialized with:
    floatTransfer      : 0
    nProcsSimpleSum    : 0
    commsType          : nonBlocking
    polling iterations : 0
trapFpe: Floating point exception trapping enabled (FOAM_SIGFPE).
fileModificationChecking : Monitoring run-time modified files using timeStampMaster (fileModificationSkew 5, maxFileModificationPolls 20)
allowSystemOperations : Allowing user-supplied system call operations

// * * * * * * * * * * * * * * * * * * * * * * * * * * * * * * * * * * * * * //
Create time

Create mesh for time = 0


SIMPLE: no convergence criteria found. Calculations will run for 2000 steps.

Reading field p

Reading field U

Reading/calculating face flux field phi

Selecting incompressible transport model Newtonian
Selecting turbulence model type laminar
Selecting laminar stress model Stokes
No MRF models present

Creating finite volume options from "constant/fvOptions"

No finite volume options present

Starting time loop

surfaceFieldValue MassFlowRate_inlet:
    operation     = sum


surfaceFieldValue MassFlowRate_outlet:
    operation     = sum


surfaceFieldValue inletAve_Values:
    operation     = average


surfaceFieldValue outletAve_Values:
    operation     = average


multiRegion MinMaxT:
    Spawned additional object(s):
        MinMaxT:region0

Time = 1

smoothSolver:  Solving for Ux, Initial residual = 1, Final residual = 0.09197728, No Iterations 3
smoothSolver:  Solving for Uy, Initial residual = 1, Final residual = 0.0649478, No Iterations 3
smoothSolver:  Solving for Uz, Initial residual = 1, Final residual = 0.06374923, No Iterations 3
DICPCG:  Solving for p, Initial residual = 1, Final residual = 0.008265191, No Iterations 146
DICPCG:  Solving for p, Initial residual = 0.2612861, Final residual = 0.002466719, No Iterations 134
DICPCG:  Solving for p, Initial residual = 0.02835288, Final residual = 0.0002733697, No Iterations 132
time step continuity errors : sum local = 0.0009261689, global = -2.27181e-05, cumulative = -2.27181e-05
ExecutionTime = 0.67 s  ClockTime = 0 s

probesFluid : p
    avg: 100012.5
    min: 100012.5
    max: 100012.5

probesFluid : U
    avg: (0.5479971 0.0004583794 7.025811e-05)
    min: (0.5479971 0.0004583794 7.025811e-05)
    max: (0.5479971 0.0004583794 7.025811e-05)

fieldMinMax MinMaxT:region0 write:
    min(mag(U)) = 0 in cell 31649 at location (0.9373242 0.08596811 -0.05038675) on processor 0
    max(mag(U)) = 1.467839 in cell 14982 at location (-0.9995729 -0.006248695 0.04612311) on processor 3

volFieldValue volAvgFluid write:
    volAverage(region0) of U = (0.4816112 3.553903e-07 -1.65204e-05)

Time = 2

smoothSolver:  Solving for Ux, Initial residual = 0.1515497, Final residual = 0.0129696, No Iterations 6
smoothSolver:  Solving for Uy, Initial residual = 0.702715, Final residual = 0.06204161, No Iterations 2
smoothSolver:  Solving for Uz, Initial residual = 0.7010213, Final residual = 0.0628164, No Iterations 2
DICPCG:  Solving for p, Initial residual = 0.3579865, Final residual = 0.002952706, No Iterations 146
DICPCG:  Solving for p, Initial residual = 0.1509945, Final residual = 0.001307332, No Iterations 135
DICPCG:  Solving for p, Initial residual = 0.01745582, Final residual = 0.0001733409, No Iterations 133
time step continuity errors : sum local = 0.001170362, global = -2.44237e-05, cumulative = -4.71418e-05
ExecutionTime = 1.01 s  ClockTime = 1 s

probesFluid : p
    avg: 100030.4
    min: 100030.4
    max: 100030.4

probesFluid : U
    avg: (0.6416045 0.0008434393 -0.0003030169)
    min: (0.6416045 0.0008434393 -0.0003030169)
    max: (0.6416045 0.0008434393 -0.0003030169)

fieldMinMax MinMaxT:region0 write:
    min(mag(U)) = 0 in cell 31649 at location (0.9373242 0.08596811 -0.05038675) on processor 0
    max(mag(U)) = 1.460653 in cell 14982 at location (-0.9995729 -0.006248695 0.04612311) on processor 3

volFieldValue volAvgFluid write:
    volAverage(region0) of U = (0.4888055 1.438438e-05 -3.081335e-05)

Time = 3

smoothSolver:  Solving for Ux, Initial residual = 0.08377645, Final residual = 0.007889018, No Iterations 6
smoothSolver:  Solving for Uy, Initial residual = 0.6094252, Final residual = 0.06014858, No Iterations 2
smoothSolver:  Solving for Uz, Initial residual = 0.6074728, Final residual = 0.03373277, No Iterations 3
DICPCG:  Solving for p, Initial residual = 0.1759223, Final residual = 0.001414896, No Iterations 145
DICPCG:  Solving for p, Initial residual = 0.08127062, Final residual = 0.0007298144, No Iterations 135
DICPCG:  Solving for p, Initial residual = 0.01003844, Final residual = 9.861257e-05, No Iterations 133
time step continuity errors : sum local = 0.0008093108, global = -1.605981e-05, cumulative = -6.320162e-05
ExecutionTime = 1.34 s  ClockTime = 1 s

probesFluid : p
    avg: 100043.1
    min: 100043.1
    max: 100043.1

probesFluid : U
    avg: (0.7480642 0.000913825 -0.0008500945)
    min: (0.7480642 0.000913825 -0.0008500945)
    max: (0.7480642 0.000913825 -0.0008500945)

fieldMinMax MinMaxT:region0 write:
    min(mag(U)) = 0 in cell 31649 at location (0.9373242 0.08596811 -0.05038675) on processor 0
    max(mag(U)) = 1.464456 in cell 14982 at location (-0.9995729 -0.006248695 0.04612311) on processor 3

volFieldValue volAvgFluid write:
    volAverage(region0) of U = (0.505266 2.513722e-05 -3.848139e-05)

Time = 4

smoothSolver:  Solving for Ux, Initial residual = 0.05522563, Final residual = 0.004903749, No Iterations 6
smoothSolver:  Solving for Uy, Initial residual = 0.4595075, Final residual = 0.03466494, No Iterations 3
smoothSolver:  Solving for Uz, Initial residual = 0.4517327, Final residual = 0.03354509, No Iterations 3
DICPCG:  Solving for p, Initial residual = 0.1276699, Final residual = 0.001198088, No Iterations 142
DICPCG:  Solving for p, Initial residual = 0.03969366, Final residual = 0.0003337486, No Iterations 135
DICPCG:  Solving for p, Initial residual = 0.005471867, Final residual = 5.135002e-05, No Iterations 130
time step continuity errors : sum local = 0.0004355066, global = -1.780012e-05, cumulative = -8.100174e-05
ExecutionTime = 1.65 s  ClockTime = 1 s

probesFluid : p
    avg: 100048.6
    min: 100048.6
    max: 100048.6

probesFluid : U
    avg: (0.8422139 0.0008406823 -0.001182761)
    min: (0.8422139 0.0008406823 -0.001182761)
    max: (0.8422139 0.0008406823 -0.001182761)

fieldMinMax MinMaxT:region0 write:
    min(mag(U)) = 0 in cell 31649 at location (0.9373242 0.08596811 -0.05038675) on processor 0
    max(mag(U)) = 1.291471 in cell 14982 at location (-0.9995729 -0.006248695 0.04612311) on processor 3

volFieldValue volAvgFluid write:
    volAverage(region0) of U = (0.5208647 1.902425e-05 -6.14067e-05)

Time = 5

smoothSolver:  Solving for Ux, Initial residual = 0.03768286, Final residual = 0.0028722, No Iterations 7
smoothSolver:  Solving for Uy, Initial residual = 0.2983109, Final residual = 0.02430454, No Iterations 4
smoothSolver:  Solving for Uz, Initial residual = 0.2922477, Final residual = 0.02386479, No Iterations 4
DICPCG:  Solving for p, Initial residual = 0.1151313, Final residual = 0.001075917, No Iterations 65
DICPCG:  Solving for p, Initial residual = 0.02705224, Final residual = 0.0002655735, No Iterations 60
DICPCG:  Solving for p, Initial residual = 0.004293751, Final residual = 4.16508e-05, No Iterations 87
time step continuity errors : sum local = 0.0003488208, global = -5.639429e-06, cumulative = -8.664117e-05
ExecutionTime = 1.88 s  ClockTime = 2 s

probesFluid : p
    avg: 100048.8
    min: 100048.8
    max: 100048.8

probesFluid : U
    avg: (0.9170505 0.0007687475 -0.001088153)
    min: (0.9170505 0.0007687475 -0.001088153)
    max: (0.9170505 0.0007687475 -0.001088153)

surfaceFieldValue MassFlowRate_inlet write:
    total faces   = 5224
    total area    = 0.03140448

    sum(inlet) of phi = -0.01668734

surfaceFieldValue MassFlowRate_outlet write:
    total faces   = 5208
    total area    = 0.03140578

    sum(outlet) of phi = 0.01668699

surfaceFieldValue inletAve_Values write:
    total faces   = 5224
    total area    = 0.03140448

    average(inlet) of U = (0.6098237 0.000803522 -0.001703632)
    average(inlet) of p = 100090

surfaceFieldValue outletAve_Values write:
    total faces   = 5208
    total area    = 0.03140578

    average(outlet) of U = (0.4997823 -9.964937e-05 -0.0001603618)
    average(outlet) of p = 100000

fieldMinMax MinMaxT:region0 write:
    min(mag(U)) = 0 in cell 31649 at location (0.9373242 0.08596811 -0.05038675) on processor 0
    max(mag(U)) = 1.157765 in cell 14982 at location (-0.9995729 -0.006248695 0.04612311) on processor 3

volFieldValue volAvgFluid write:
    volAverage(region0) of U = (0.5330097 3.255538e-06 -9.268452e-05)

Time = 6

smoothSolver:  Solving for Ux, Initial residual = 0.02761169, Final residual = 0.002203167, No Iterations 7
smoothSolver:  Solving for Uy, Initial residual = 0.2260277, Final residual = 0.01962811, No Iterations 4
smoothSolver:  Solving for Uz, Initial residual = 0.2228032, Final residual = 0.01969856, No Iterations 4
DICPCG:  Solving for p, Initial residual = 0.108568, Final residual = 0.0009509302, No Iterations 136
DICPCG:  Solving for p, Initial residual = 0.02683299, Final residual = 0.0002592632, No Iterations 24
DICPCG:  Solving for p, Initial residual = 0.004239287, Final residual = 4.217482e-05, No Iterations 93
time step continuity errors : sum local = 0.0003550932, global = 3.152117e-07, cumulative = -8.632595e-05
ExecutionTime = 2.12 s  ClockTime = 2 s

probesFluid : p
    avg: 100047
    min: 100047
    max: 100047

probesFluid : U
    avg: (0.9691077 0.0006638336 -0.0007653044)
    min: (0.9691077 0.0006638336 -0.0007653044)
    max: (0.9691077 0.0006638336 -0.0007653044)

fieldMinMax MinMaxT:region0 write:
    min(mag(U)) = 0 in cell 31649 at location (0.9373242 0.08596811 -0.05038675) on processor 0
    max(mag(U)) = 1.064142 in cell 54971 at location (-0.9995454 -0.005720027 -0.00227705) on processor 3

volFieldValue volAvgFluid write:
    volAverage(region0) of U = (0.5412 -5.314534e-06 -0.0001155484)

Time = 7

smoothSolver:  Solving for Ux, Initial residual = 0.0214106, Final residual = 0.002079644, No Iterations 6
smoothSolver:  Solving for Uy, Initial residual = 0.2588058, Final residual = 0.01891678, No Iterations 3
smoothSolver:  Solving for Uz, Initial residual = 0.2546658, Final residual = 0.01937712, No Iterations 3
DICPCG:  Solving for p, Initial residual = 0.1021652, Final residual = 0.0009295583, No Iterations 136
DICPCG:  Solving for p, Initial residual = 0.02334281, Final residual = 0.0002230215, No Iterations 46
DICPCG:  Solving for p, Initial residual = 0.003776953, Final residual = 3.46181e-05, No Iterations 100
time step continuity errors : sum local = 0.0003008204, global = 1.935575e-05, cumulative = -6.697021e-05
ExecutionTime = 2.39 s  ClockTime = 2 s

probesFluid : p
    avg: 100045.2
    min: 100045.2
    max: 100045.2

probesFluid : U
    avg: (1.002938 0.0005336559 -0.0004521039)
    min: (1.002938 0.0005336559 -0.0004521039)
    max: (1.002938 0.0005336559 -0.0004521039)

fieldMinMax MinMaxT:region0 write:
    min(mag(U)) = 0 in cell 31649 at location (0.9373242 0.08596811 -0.05038675) on processor 0
    max(mag(U)) = 1.017413 in cell 54971 at location (-0.9995454 -0.005720027 -0.00227705) on processor 3

volFieldValue volAvgFluid write:
    volAverage(region0) of U = (0.5464503 -7.442664e-07 -0.0001240462)

Time = 8

smoothSolver:  Solving for Ux, Initial residual = 0.01744895, Final residual = 0.001526474, No Iterations 6
smoothSolver:  Solving for Uy, Initial residual = 0.2562846, Final residual = 0.01412669, No Iterations 3
smoothSolver:  Solving for Uz, Initial residual = 0.2522447, Final residual = 0.01469807, No Iterations 3
DICPCG:  Solving for p, Initial residual = 0.094742, Final residual = 0.0009399748, No Iterations 109
DICPCG:  Solving for p, Initial residual = 0.01902063, Final residual = 0.000170482, No Iterations 107
DICPCG:  Solving for p, Initial residual = 0.003434285, Final residual = 3.33437e-05, No Iterations 93
time step continuity errors : sum local = 0.0003032783, global = 6.354166e-06, cumulative = -6.061604e-05
ExecutionTime = 2.67 s  ClockTime = 2 s

probesFluid : p
    avg: 100044.2
    min: 100044.2
    max: 100044.2

probesFluid : U
    avg: (1.027542 0.0004091784 -0.0001969226)
    min: (1.027542 0.0004091784 -0.0001969226)
    max: (1.027542 0.0004091784 -0.0001969226)

fieldMinMax MinMaxT:region0 write:
    min(mag(U)) = 0 in cell 31649 at location (0.9373242 0.08596811 -0.05038675) on processor 0
    max(mag(U)) = 1.037233 in cell 42942 at location (-0.792 -0.008013848 0.00799895) on processor 2

volFieldValue volAvgFluid write:
    volAverage(region0) of U = (0.5504002 1.039934e-05 -0.0001266228)

Time = 9

smoothSolver:  Solving for Ux, Initial residual = 0.01476934, Final residual = 0.001219139, No Iterations 6
smoothSolver:  Solving for Uy, Initial residual = 0.2311444, Final residual = 0.02242758, No Iterations 2
smoothSolver:  Solving for Uz, Initial residual = 0.2279458, Final residual = 0.01243507, No Iterations 3
DICPCG:  Solving for p, Initial residual = 0.08632291, Final residual = 0.0008596002, No Iterations 17
DICPCG:  Solving for p, Initial residual = 0.01557525, Final residual = 0.0001552572, No Iterations 105
DICPCG:  Solving for p, Initial residual = 0.002732465, Final residual = 2.552139e-05, No Iterations 115
time step continuity errors : sum local = 0.0002445946, global = 1.43907e-05, cumulative = -4.622534e-05
ExecutionTime = 2.93 s  ClockTime = 3 s

probesFluid : p
    avg: 100043.9
    min: 100043.9
    max: 100043.9

probesFluid : U
    avg: (1.046784 0.0003285645 -5.221041e-05)
    min: (1.046784 0.0003285645 -5.221041e-05)
    max: (1.046784 0.0003285645 -5.221041e-05)

fieldMinMax MinMaxT:region0 write:
    min(mag(U)) = 0 in cell 31649 at location (0.9373242 0.08596811 -0.05038675) on processor 0
    max(mag(U)) = 1.055822 in cell 42942 at location (-0.792 -0.008013848 0.00799895) on processor 2

volFieldValue volAvgFluid write:
    volAverage(region0) of U = (0.5536804 2.168626e-05 -0.0001272744)

Time = 10

smoothSolver:  Solving for Ux, Initial residual = 0.01287496, Final residual = 0.001003204, No Iterations 6
smoothSolver:  Solving for Uy, Initial residual = 0.2046533, Final residual = 0.01185407, No Iterations 3
smoothSolver:  Solving for Uz, Initial residual = 0.2009311, Final residual = 0.01167797, No Iterations 3
DICPCG:  Solving for p, Initial residual = 0.07829604, Final residual = 0.000697509, No Iterations 10
DICPCG:  Solving for p, Initial residual = 0.01331351, Final residual = 0.0001331258, No Iterations 60
DICPCG:  Solving for p, Initial residual = 0.002562163, Final residual = 2.449116e-05, No Iterations 89
time step continuity errors : sum local = 0.0002471001, global = -3.49236e-06, cumulative = -4.97177e-05
ExecutionTime = 3.12 s  ClockTime = 3 s

probesFluid : p
    avg: 100044
    min: 100044
    max: 100044

probesFluid : U
    avg: (1.062747 0.0001968275 5.690506e-07)
    min: (1.062747 0.0001968275 5.690506e-07)
    max: (1.062747 0.0001968275 5.690506e-07)

surfaceFieldValue MassFlowRate_inlet write:
    sum(inlet) of phi = -0.01739131

surfaceFieldValue MassFlowRate_outlet write:
    sum(outlet) of phi = 0.0173911

surfaceFieldValue inletAve_Values write:
    average(inlet) of U = (0.5631501 0.001183694 -0.001493378)
    average(inlet) of p = 100090

surfaceFieldValue outletAve_Values write:
    average(outlet) of U = (0.515412 0.0001349418 -0.0003905364)
    average(outlet) of p = 100000

fieldMinMax MinMaxT:region0 write:
    min(mag(U)) = 0 in cell 31649 at location (0.9373242 0.08596811 -0.05038675) on processor 0
    max(mag(U)) = 1.070922 in cell 42942 at location (-0.792 -0.008013848 0.00799895) on processor 2

volFieldValue volAvgFluid write:
    volAverage(region0) of U = (0.5565472 3.234035e-05 -0.0001271665)

Time = 11

smoothSolver:  Solving for Ux, Initial residual = 0.01147081, Final residual = 0.001074332, No Iterations 5
smoothSolver:  Solving for Uy, Initial residual = 0.1831352, Final residual = 0.01140852, No Iterations 3
smoothSolver:  Solving for Uz, Initial residual = 0.180959, Final residual = 0.01136449, No Iterations 3
DICPCG:  Solving for p, Initial residual = 0.07057371, Final residual = 0.0006831503, No Iterations 40
DICPCG:  Solving for p, Initial residual = 0.01162034, Final residual = 0.0001131339, No Iterations 100
DICPCG:  Solving for p, Initial residual = 0.002195577, Final residual = 2.185845e-05, No Iterations 40
time step continuity errors : sum local = 0.0002319006, global = -7.353389e-05, cumulative = -0.0001232516
ExecutionTime = 3.31 s  ClockTime = 3 s

probesFluid : p
    avg: 100044.2
    min: 100044.2
    max: 100044.2

probesFluid : U
    avg: (1.075302 6.918197e-05 -2.33182e-05)
    min: (1.075302 6.918197e-05 -2.33182e-05)
    max: (1.075302 6.918197e-05 -2.33182e-05)

fieldMinMax MinMaxT:region0 write:
    min(mag(U)) = 0 in cell 31649 at location (0.9373242 0.08596811 -0.05038675) on processor 0
    max(mag(U)) = 1.082778 in cell 42942 at location (-0.792 -0.008013848 0.00799895) on processor 2

volFieldValue volAvgFluid write:
    volAverage(region0) of U = (0.5589111 3.814083e-05 -0.0001300201)

Time = 12

smoothSolver:  Solving for Ux, Initial residual = 0.0103607, Final residual = 0.0009019364, No Iterations 5
smoothSolver:  Solving for Uy, Initial residual = 0.1695625, Final residual = 0.01099801, No Iterations 3
smoothSolver:  Solving for Uz, Initial residual = 0.167872, Final residual = 0.01102964, No Iterations 3
DICPCG:  Solving for p, Initial residual = 0.06343756, Final residual = 0.0006172834, No Iterations 33
DICPCG:  Solving for p, Initial residual = 0.01014509, Final residual = 9.450472e-05, No Iterations 107
DICPCG:  Solving for p, Initial residual = 0.001994078, Final residual = 1.993626e-05, No Iterations 20
time step continuity errors : sum local = 0.0002220237, global = -4.5179e-05, cumulative = -0.0001684306
ExecutionTime = 3.49 s  ClockTime = 3 s

probesFluid : p
    avg: 100044.4
    min: 100044.4
    max: 100044.4

probesFluid : U
    avg: (1.08581 -3.355167e-05 -7.509473e-05)
    min: (1.08581 -3.355167e-05 -7.509473e-05)
    max: (1.08581 -3.355167e-05 -7.509473e-05)

fieldMinMax MinMaxT:region0 write:
    min(mag(U)) = 0 in cell 31649 at location (0.9373242 0.08596811 -0.05038675) on processor 0
    max(mag(U)) = 1.092684 in cell 42942 at location (-0.792 -0.008013848 0.00799895) on processor 2

volFieldValue volAvgFluid write:
    volAverage(region0) of U = (0.5609533 4.159324e-05 -0.0001336595)

Time = 13

smoothSolver:  Solving for Ux, Initial residual = 0.009410707, Final residual = 0.0007683111, No Iterations 5
smoothSolver:  Solving for Uy, Initial residual = 0.1605781, Final residual = 0.01053067, No Iterations 3
smoothSolver:  Solving for Uz, Initial residual = 0.1592364, Final residual = 0.01063185, No Iterations 3
DICPCG:  Solving for p, Initial residual = 0.05701419, Final residual = 0.0005296271, No Iterations 25
DICPCG:  Solving for p, Initial residual = 0.00887437, Final residual = 8.787715e-05, No Iterations 113
DICPCG:  Solving for p, Initial residual = 0.001688175, Final residual = 1.589623e-05, No Iterations 30
time step continuity errors : sum local = 0.0001856082, global = -2.750054e-05, cumulative = -0.0001959311
ExecutionTime = 3.67 s  ClockTime = 3 s

probesFluid : p
    avg: 100044.5
    min: 100044.5
    max: 100044.5

probesFluid : U
    avg: (1.094486 -0.0001087956 -0.0001260474)
    min: (1.094486 -0.0001087956 -0.0001260474)
    max: (1.094486 -0.0001087956 -0.0001260474)

fieldMinMax MinMaxT:region0 write:
    min(mag(U)) = 0 in cell 31649 at location (0.9373242 0.08596811 -0.05038675) on processor 0
    max(mag(U)) = 1.100834 in cell 18989 at location (0.376 -0.008013848 -0.00800105) on processor 1

volFieldValue volAvgFluid write:
    volAverage(region0) of U = (0.5626819 4.291415e-05 -0.0001382591)

Time = 14

smoothSolver:  Solving for Ux, Initial residual = 0.008585661, Final residual = 0.0006666771, No Iterations 5
smoothSolver:  Solving for Uy, Initial residual = 0.1536416, Final residual = 0.0100591, No Iterations 3
smoothSolver:  Solving for Uz, Initial residual = 0.15263, Final residual = 0.01020654, No Iterations 3
DICPCG:  Solving for p, Initial residual = 0.05133292, Final residual = 0.0005003905, No Iterations 9
DICPCG:  Solving for p, Initial residual = 0.007828977, Final residual = 7.721349e-05, No Iterations 61
DICPCG:  Solving for p, Initial residual = 0.001465665, Final residual = 1.454316e-05, No Iterations 97
time step continuity errors : sum local = 0.000177483, global = -6.332695e-06, cumulative = -0.0002022638
ExecutionTime = 3.86 s  ClockTime = 4 s

probesFluid : p
    avg: 100044.5
    min: 100044.5
    max: 100044.5

probesFluid : U
    avg: (1.101535 -0.0001547569 -0.0001704643)
    min: (1.101535 -0.0001547569 -0.0001704643)
    max: (1.101535 -0.0001547569 -0.0001704643)

fieldMinMax MinMaxT:region0 write:
    min(mag(U)) = 0 in cell 31649 at location (0.9373242 0.08596811 -0.05038675) on processor 0
    max(mag(U)) = 1.107414 in cell 18989 at location (0.376 -0.008013848 -0.00800105) on processor 1

volFieldValue volAvgFluid write:
    volAverage(region0) of U = (0.5641234 4.338629e-05 -0.0001427355)

Time = 15

smoothSolver:  Solving for Ux, Initial residual = 0.007867993, Final residual = 0.0007562748, No Iterations 4
smoothSolver:  Solving for Uy, Initial residual = 0.1472662, Final residual = 0.009595124, No Iterations 3
smoothSolver:  Solving for Uz, Initial residual = 0.1465235, Final residual = 0.009772371, No Iterations 3
DICPCG:  Solving for p, Initial residual = 0.04637644, Final residual = 0.000441046, No Iterations 7
DICPCG:  Solving for p, Initial residual = 0.006857621, Final residual = 6.819359e-05, No Iterations 59
DICPCG:  Solving for p, Initial residual = 0.001221714, Final residual = 1.192968e-05, No Iterations 44
time step continuity errors : sum local = 0.0001515837, global = -8.599135e-06, cumulative = -0.000210863
ExecutionTime = 4 s  ClockTime = 4 s

probesFluid : p
    avg: 100044.5
    min: 100044.5
    max: 100044.5

probesFluid : U
    avg: (1.106666 -0.0001826599 -0.0002118517)
    min: (1.106666 -0.0001826599 -0.0002118517)
    max: (1.106666 -0.0001826599 -0.0002118517)

surfaceFieldValue MassFlowRate_inlet write:
    sum(inlet) of phi = -0.01765991

surfaceFieldValue MassFlowRate_outlet write:
    sum(outlet) of phi = 0.01765937

surfaceFieldValue inletAve_Values write:
    average(inlet) of U = (0.5493116 0.00159268 -0.001060142)
    average(inlet) of p = 100090

surfaceFieldValue outletAve_Values write:
    average(outlet) of U = (0.5209841 0.0004354536 -0.0006792633)
    average(outlet) of p = 100000

fieldMinMax MinMaxT:region0 write:
    min(mag(U)) = 0 in cell 31649 at location (0.9373242 0.08596811 -0.05038675) on processor 0
    max(mag(U)) = 1.112095 in cell 18989 at location (0.376 -0.008013848 -0.00800105) on processor 1

volFieldValue volAvgFluid write:
    volAverage(region0) of U = (0.5652089 4.452754e-05 -0.0001466914)

Time = 16

smoothSolver:  Solving for Ux, Initial residual = 0.007256267, Final residual = 0.0006837801, No Iterations 4
smoothSolver:  Solving for Uy, Initial residual = 0.1403614, Final residual = 0.009044184, No Iterations 3
smoothSolver:  Solving for Uz, Initial residual = 0.1398519, Final residual = 0.009237357, No Iterations 3
DICPCG:  Solving for p, Initial residual = 0.0420556, Final residual = 0.0003617144, No Iterations 6
DICPCG:  Solving for p, Initial residual = 0.006129128, Final residual = 5.933694e-05, No Iterations 55
DICPCG:  Solving for p, Initial residual = 0.001073426, Final residual = 1.055939e-05, No Iterations 64
time step continuity errors : sum local = 0.0001392205, global = 2.39799e-05, cumulative = -0.0001868831
ExecutionTime = 4.16 s  ClockTime = 4 s

probesFluid : p
    avg: 100044.5
    min: 100044.5
    max: 100044.5

probesFluid : U
    avg: (1.110843 -0.0001917925 -0.0002420861)
    min: (1.110843 -0.0001917925 -0.0002420861)
    max: (1.110843 -0.0001917925 -0.0002420861)

fieldMinMax MinMaxT:region0 write:
    min(mag(U)) = 0 in cell 31649 at location (0.9373242 0.08596811 -0.05038675) on processor 0
    max(mag(U)) = 1.115865 in cell 18385 at location (0.376 0.007986152 -0.00800105) on processor 1

volFieldValue volAvgFluid write:
    volAverage(region0) of U = (0.5661217 4.55236e-05 -0.0001499766)

Time = 17

smoothSolver:  Solving for Ux, Initial residual = 0.006714417, Final residual = 0.0006253092, No Iterations 4
smoothSolver:  Solving for Uy, Initial residual = 0.133331, Final residual = 0.008501958, No Iterations 3
smoothSolver:  Solving for Uz, Initial residual = 0.1330011, Final residual = 0.008701172, No Iterations 3
DICPCG:  Solving for p, Initial residual = 0.03822927, Final residual = 0.0003038931, No Iterations 6
DICPCG:  Solving for p, Initial residual = 0.005471333, Final residual = 5.185395e-05, No Iterations 26
DICPCG:  Solving for p, Initial residual = 0.0009451792, Final residual = 9.140037e-06, No Iterations 105
time step continuity errors : sum local = 0.0001246379, global = 7.041238e-06, cumulative = -0.0001798418
ExecutionTime = 4.33 s  ClockTime = 4 s

probesFluid : p
    avg: 100044.5
    min: 100044.5
    max: 100044.5

probesFluid : U
    avg: (1.114233 -0.0001867798 -0.0002615649)
    min: (1.114233 -0.0001867798 -0.0002615649)
    max: (1.114233 -0.0001867798 -0.0002615649)

fieldMinMax MinMaxT:region0 write:
    min(mag(U)) = 0 in cell 31649 at location (0.9373242 0.08596811 -0.05038675) on processor 0
    max(mag(U)) = 1.118856 in cell 18385 at location (0.376 0.007986152 -0.00800105) on processor 1

volFieldValue volAvgFluid write:
    volAverage(region0) of U = (0.5668935 4.698285e-05 -0.0001523876)

Time = 18

smoothSolver:  Solving for Ux, Initial residual = 0.006230823, Final residual = 0.0005783071, No Iterations 4
smoothSolver:  Solving for Uy, Initial residual = 0.1264179, Final residual = 0.007996257, No Iterations 3
smoothSolver:  Solving for Uz, Initial residual = 0.1262382, Final residual = 0.008196229, No Iterations 3
DICPCG:  Solving for p, Initial residual = 0.03483085, Final residual = 0.000268183, No Iterations 6
DICPCG:  Solving for p, Initial residual = 0.004907319, Final residual = 4.762517e-05, No Iterations 25
DICPCG:  Solving for p, Initial residual = 0.0008480529, Final residual = 8.440317e-06, No Iterations 48
time step continuity errors : sum local = 0.0001186843, global = 3.370546e-05, cumulative = -0.0001461364
ExecutionTime = 4.47 s  ClockTime = 4 s

probesFluid : p
    avg: 100044.5
    min: 100044.5
    max: 100044.5

probesFluid : U
    avg: (1.117019 -0.0001725894 -0.0002787283)
    min: (1.117019 -0.0001725894 -0.0002787283)
    max: (1.117019 -0.0001725894 -0.0002787283)

fieldMinMax MinMaxT:region0 write:
    min(mag(U)) = 0 in cell 31649 at location (0.9373242 0.08596811 -0.05038675) on processor 0
    max(mag(U)) = 1.121281 in cell 18385 at location (0.376 0.007986152 -0.00800105) on processor 1

volFieldValue volAvgFluid write:
    volAverage(region0) of U = (0.5675557 4.826307e-05 -0.0001547732)

Time = 19

smoothSolver:  Solving for Ux, Initial residual = 0.005799213, Final residual = 0.0005406743, No Iterations 4
smoothSolver:  Solving for Uy, Initial residual = 0.119524, Final residual = 0.007534102, No Iterations 3
smoothSolver:  Solving for Uz, Initial residual = 0.1194569, Final residual = 0.007732234, No Iterations 3
DICPCG:  Solving for p, Initial residual = 0.03180649, Final residual = 0.0002432923, No Iterations 6
DICPCG:  Solving for p, Initial residual = 0.004419306, Final residual = 4.369437e-05, No Iterations 25
DICPCG:  Solving for p, Initial residual = 0.0007657491, Final residual = 7.614969e-06, No Iterations 47
time step continuity errors : sum local = 0.0001101157, global = 3.367621e-05, cumulative = -0.0001124601
ExecutionTime = 4.61 s  ClockTime = 4 s

probesFluid : p
    avg: 100044.5
    min: 100044.5
    max: 100044.5

probesFluid : U
    avg: (1.119324 -0.0001505296 -0.0002916501)
    min: (1.119324 -0.0001505296 -0.0002916501)
    max: (1.119324 -0.0001505296 -0.0002916501)

fieldMinMax MinMaxT:region0 write:
    min(mag(U)) = 0 in cell 31649 at location (0.9373242 0.08596811 -0.05038675) on processor 0
    max(mag(U)) = 1.123237 in cell 18385 at location (0.376 0.007986152 -0.00800105) on processor 1

volFieldValue volAvgFluid write:
    volAverage(region0) of U = (0.5681297 4.976972e-05 -0.0001565325)

Time = 20

smoothSolver:  Solving for Ux, Initial residual = 0.005409458, Final residual = 0.0005095695, No Iterations 4
smoothSolver:  Solving for Uy, Initial residual = 0.112933, Final residual = 0.007111305, No Iterations 3
smoothSolver:  Solving for Uz, Initial residual = 0.1129542, Final residual = 0.007305804, No Iterations 3
DICPCG:  Solving for p, Initial residual = 0.02910916, Final residual = 0.0002228336, No Iterations 6
DICPCG:  Solving for p, Initial residual = 0.003992915, Final residual = 3.775176e-05, No Iterations 26
DICPCG:  Solving for p, Initial residual = 0.00069318, Final residual = 6.736299e-06, No Iterations 47
time step continuity errors : sum local = 9.992606e-05, global = 2.30791e-05, cumulative = -8.938105e-05
ExecutionTime = 4.76 s  ClockTime = 4 s

probesFluid : p
    avg: 100044.5
    min: 100044.5
    max: 100044.5

probesFluid : U
    avg: (1.121251 -0.0001235616 -0.0003020293)
    min: (1.121251 -0.0001235616 -0.0003020293)
    max: (1.121251 -0.0001235616 -0.0003020293)

surfaceFieldValue MassFlowRate_inlet write:
    sum(inlet) of phi = -0.01776439

surfaceFieldValue MassFlowRate_outlet write:
    sum(outlet) of phi = 0.01776584

surfaceFieldValue inletAve_Values write:
    average(inlet) of U = (0.5404389 0.001926215 -0.0006610628)
    average(inlet) of p = 100090

surfaceFieldValue outletAve_Values write:
    average(outlet) of U = (0.5224746 0.0006846739 -0.0009564844)
    average(outlet) of p = 100000

fieldMinMax MinMaxT:region0 write:
    min(mag(U)) = 0 in cell 31649 at location (0.9373242 0.08596811 -0.05038675) on processor 0
    max(mag(U)) = 1.124823 in cell 18385 at location (0.376 0.007986152 -0.00800105) on processor 1

volFieldValue volAvgFluid write:
    volAverage(region0) of U = (0.568632 5.131797e-05 -0.0001579237)

Time = 21

smoothSolver:  Solving for Ux, Initial residual = 0.00505576, Final residual = 0.0004830142, No Iterations 4
smoothSolver:  Solving for Uy, Initial residual = 0.1066405, Final residual = 0.006719751, No Iterations 3
smoothSolver:  Solving for Uz, Initial residual = 0.1067327, Final residual = 0.006910983, No Iterations 3
DICPCG:  Solving for p, Initial residual = 0.02669596, Final residual = 0.0002043331, No Iterations 6
DICPCG:  Solving for p, Initial residual = 0.003617814, Final residual = 3.496731e-05, No Iterations 26
DICPCG:  Solving for p, Initial residual = 0.0006295193, Final residual = 6.187383e-06, No Iterations 47
time step continuity errors : sum local = 9.394822e-05, global = 7.905283e-06, cumulative = -8.147576e-05
ExecutionTime = 4.88 s  ClockTime = 5 s

probesFluid : p
    avg: 100044.5
    min: 100044.5
    max: 100044.5

probesFluid : U
    avg: (1.122867 -9.356973e-05 -0.0003106887)
    min: (1.122867 -9.356973e-05 -0.0003106887)
    max: (1.122867 -9.356973e-05 -0.0003106887)

fieldMinMax MinMaxT:region0 write:
    min(mag(U)) = 0 in cell 31649 at location (0.9373242 0.08596811 -0.05038675) on processor 0
    max(mag(U)) = 1.126206 in cell 42942 at location (-0.792 -0.008013848 0.00799895) on processor 2

volFieldValue volAvgFluid write:
    volAverage(region0) of U = (0.5690759 5.284228e-05 -0.0001590396)

Time = 22

smoothSolver:  Solving for Ux, Initial residual = 0.004733044, Final residual = 0.0004597833, No Iterations 4
smoothSolver:  Solving for Uy, Initial residual = 0.1006482, Final residual = 0.006352854, No Iterations 3
smoothSolver:  Solving for Uz, Initial residual = 0.1007987, Final residual = 0.006540803, No Iterations 3
DICPCG:  Solving for p, Initial residual = 0.02453094, Final residual = 0.0001869384, No Iterations 6
DICPCG:  Solving for p, Initial residual = 0.00328592, Final residual = 3.20394e-05, No Iterations 26
DICPCG:  Solving for p, Initial residual = 0.0005722847, Final residual = 5.511972e-06, No Iterations 50
time step continuity errors : sum local = 8.549889e-05, global = -8.606955e-06, cumulative = -9.008272e-05
ExecutionTime = 5.01 s  ClockTime = 5 s

probesFluid : p
    avg: 100044.5
    min: 100044.5
    max: 100044.5

probesFluid : U
    avg: (1.124241 -6.21305e-05 -0.0003183704)
    min: (1.124241 -6.21305e-05 -0.0003183704)
    max: (1.124241 -6.21305e-05 -0.0003183704)

fieldMinMax MinMaxT:region0 write:
    min(mag(U)) = 0 in cell 31649 at location (0.9373242 0.08596811 -0.05038675) on processor 0
    max(mag(U)) = 1.127408 in cell 42942 at location (-0.792 -0.008013848 0.00799895) on processor 2

volFieldValue volAvgFluid write:
    volAverage(region0) of U = (0.5694712 5.439434e-05 -0.0001599449)

Time = 23

smoothSolver:  Solving for Ux, Initial residual = 0.004436641, Final residual = 0.0004390743, No Iterations 4
smoothSolver:  Solving for Uy, Initial residual = 0.09496639, Final residual = 0.006006604, No Iterations 3
smoothSolver:  Solving for Uz, Initial residual = 0.09516191, Final residual = 0.006191706, No Iterations 3
DICPCG:  Solving for p, Initial residual = 0.02258232, Final residual = 0.0001705353, No Iterations 6
DICPCG:  Solving for p, Initial residual = 0.00299113, Final residual = 2.918808e-05, No Iterations 25
DICPCG:  Solving for p, Initial residual = 0.00052063, Final residual = 5.027291e-06, No Iterations 111
time step continuity errors : sum local = 7.952342e-05, global = -2.45753e-06, cumulative = -9.254025e-05
ExecutionTime = 5.17 s  ClockTime = 5 s

probesFluid : p
    avg: 100044.5
    min: 100044.5
    max: 100044.5

probesFluid : U
    avg: (1.125409 -2.999839e-05 -0.0003255502)
    min: (1.125409 -2.999839e-05 -0.0003255502)
    max: (1.125409 -2.999839e-05 -0.0003255502)

fieldMinMax MinMaxT:region0 write:
    min(mag(U)) = 0 in cell 31649 at location (0.9373242 0.08596811 -0.05038675) on processor 0
    max(mag(U)) = 1.128408 in cell 42942 at location (-0.792 -0.008013848 0.00799895) on processor 2

volFieldValue volAvgFluid write:
    volAverage(region0) of U = (0.5698252 5.572212e-05 -0.0001607308)

Time = 24

smoothSolver:  Solving for Ux, Initial residual = 0.004163691, Final residual = 0.0003350888, No Iterations 5
smoothSolver:  Solving for Uy, Initial residual = 0.08956761, Final residual = 0.005678282, No Iterations 3
smoothSolver:  Solving for Uz, Initial residual = 0.08979859, Final residual = 0.005858783, No Iterations 3
DICPCG:  Solving for p, Initial residual = 0.02082688, Final residual = 0.000171239, No Iterations 6
DICPCG:  Solving for p, Initial residual = 0.00273773, Final residual = 2.637699e-05, No Iterations 24
DICPCG:  Solving for p, Initial residual = 0.000482298, Final residual = 4.509326e-06, No Iterations 108
time step continuity errors : sum local = 7.262942e-05, global = -5.373004e-06, cumulative = -9.791325e-05
ExecutionTime = 5.33 s  ClockTime = 5 s

probesFluid : p
    avg: 100044.5
    min: 100044.5
    max: 100044.5

probesFluid : U
    avg: (1.126498 4.568906e-06 -0.0003281752)
    min: (1.126498 4.568906e-06 -0.0003281752)
    max: (1.126498 4.568906e-06 -0.0003281752)

fieldMinMax MinMaxT:region0 write:
    min(mag(U)) = 0 in cell 31649 at location (0.9373242 0.08596811 -0.05038675) on processor 0
    max(mag(U)) = 1.129339 in cell 42942 at location (-0.792 -0.008013848 0.00799895) on processor 2

volFieldValue volAvgFluid write:
    volAverage(region0) of U = (0.5701769 5.720404e-05 -0.0001612861)

Time = 25

smoothSolver:  Solving for Ux, Initial residual = 0.003903774, Final residual = 0.0003194719, No Iterations 5
smoothSolver:  Solving for Uy, Initial residual = 0.08470415, Final residual = 0.005435667, No Iterations 3
smoothSolver:  Solving for Uz, Initial residual = 0.08496523, Final residual = 0.00561296, No Iterations 3
DICPCG:  Solving for p, Initial residual = 0.01923381, Final residual = 0.0001602015, No Iterations 6
DICPCG:  Solving for p, Initial residual = 0.002505088, Final residual = 2.408601e-05, No Iterations 11
DICPCG:  Solving for p, Initial residual = 0.0004404008, Final residual = 4.321995e-06, No Iterations 87
time step continuity errors : sum local = 7.078021e-05, global = -1.857955e-05, cumulative = -0.0001164928
ExecutionTime = 5.48 s  ClockTime = 5 s

probesFluid : p
    avg: 100044.5
    min: 100044.5
    max: 100044.5

probesFluid : U
    avg: (1.127423 3.934144e-05 -0.0003304831)
    min: (1.127423 3.934144e-05 -0.0003304831)
    max: (1.127423 3.934144e-05 -0.0003304831)

surfaceFieldValue MassFlowRate_inlet write:
    sum(inlet) of phi = -0.01782351

surfaceFieldValue MassFlowRate_outlet write:
    sum(outlet) of phi = 0.01782235

surfaceFieldValue inletAve_Values write:
    average(inlet) of U = (0.5350122 0.0021775 -0.0003355228)
    average(inlet) of p = 100090

surfaceFieldValue outletAve_Values write:
    average(outlet) of U = (0.5228911 0.0008650851 -0.001199983)
    average(outlet) of p = 100000

fieldMinMax MinMaxT:region0 write:
    min(mag(U)) = 0 in cell 31649 at location (0.9373242 0.08596811 -0.05038675) on processor 0
    max(mag(U)) = 1.130127 in cell 42942 at location (-0.792 -0.008013848 0.00799895) on processor 2

volFieldValue volAvgFluid write:
    volAverage(region0) of U = (0.5704919 5.821509e-05 -0.0001617771)

Time = 26

smoothSolver:  Solving for Ux, Initial residual = 0.00366592, Final residual = 0.0003051486, No Iterations 5
smoothSolver:  Solving for Uy, Initial residual = 0.08004754, Final residual = 0.005212869, No Iterations 3
smoothSolver:  Solving for Uz, Initial residual = 0.08033599, Final residual = 0.005387991, No Iterations 3
DICPCG:  Solving for p, Initial residual = 0.01778461, Final residual = 0.0001445315, No Iterations 6
DICPCG:  Solving for p, Initial residual = 0.002293489, Final residual = 2.219244e-05, No Iterations 10
DICPCG:  Solving for p, Initial residual = 0.0004008256, Final residual = 3.782006e-06, No Iterations 118
time step continuity errors : sum local = 6.289544e-05, global = -3.523501e-06, cumulative = -0.0001200163
ExecutionTime = 5.64 s  ClockTime = 5 s

probesFluid : p
    avg: 100044.5
    min: 100044.5
    max: 100044.5

probesFluid : U
    avg: (1.128206 7.268477e-05 -0.0003325957)
    min: (1.128206 7.268477e-05 -0.0003325957)
    max: (1.128206 7.268477e-05 -0.0003325957)

fieldMinMax MinMaxT:region0 write:
    min(mag(U)) = 0 in cell 31649 at location (0.9373242 0.08596811 -0.05038675) on processor 0
    max(mag(U)) = 1.130778 in cell 42942 at location (-0.792 -0.008013848 0.00799895) on processor 2

volFieldValue volAvgFluid write:
    volAverage(region0) of U = (0.5707748 5.937591e-05 -0.0001620991)

Time = 27

smoothSolver:  Solving for Ux, Initial residual = 0.003445252, Final residual = 0.0002917946, No Iterations 5
smoothSolver:  Solving for Uy, Initial residual = 0.0755584, Final residual = 0.004985728, No Iterations 3
smoothSolver:  Solving for Uz, Initial residual = 0.07586896, Final residual = 0.005158126, No Iterations 3
DICPCG:  Solving for p, Initial residual = 0.01646397, Final residual = 0.0001288833, No Iterations 6
DICPCG:  Solving for p, Initial residual = 0.002102361, Final residual = 1.94812e-05, No Iterations 10
DICPCG:  Solving for p, Initial residual = 0.0003657065, Final residual = 3.652329e-06, No Iterations 121
time step continuity errors : sum local = 6.160669e-05, global = -1.803608e-06, cumulative = -0.0001218199
ExecutionTime = 5.81 s  ClockTime = 6 s

probesFluid : p
    avg: 100044.5
    min: 100044.5
    max: 100044.5

probesFluid : U
    avg: (1.128875 0.0001045828 -0.0003343239)
    min: (1.128875 0.0001045828 -0.0003343239)
    max: (1.128875 0.0001045828 -0.0003343239)

fieldMinMax MinMaxT:region0 write:
    min(mag(U)) = 0 in cell 31649 at location (0.9373242 0.08596811 -0.05038675) on processor 0
    max(mag(U)) = 1.13134 in cell 42942 at location (-0.792 -0.008013848 0.00799895) on processor 2

volFieldValue volAvgFluid write:
    volAverage(region0) of U = (0.5710312 6.032192e-05 -0.0001623258)

Time = 28

smoothSolver:  Solving for Ux, Initial residual = 0.00323947, Final residual = 0.0002794215, No Iterations 5
smoothSolver:  Solving for Uy, Initial residual = 0.07132206, Final residual = 0.00475023, No Iterations 3
smoothSolver:  Solving for Uz, Initial residual = 0.07165152, Final residual = 0.00491973, No Iterations 3
DICPCG:  Solving for p, Initial residual = 0.01525864, Final residual = 0.0001153596, No Iterations 6
DICPCG:  Solving for p, Initial residual = 0.001930192, Final residual = 1.737733e-05, No Iterations 10
DICPCG:  Solving for p, Initial residual = 0.000334415, Final residual = 3.214164e-06, No Iterations 121
time step continuity errors : sum local = 5.493217e-05, global = -1.765074e-06, cumulative = -0.000123585
ExecutionTime = 5.98 s  ClockTime = 6 s

probesFluid : p
    avg: 100044.5
    min: 100044.5
    max: 100044.5

probesFluid : U
    avg: (1.129456 0.0001347186 -0.0003363029)
    min: (1.129456 0.0001347186 -0.0003363029)
    max: (1.129456 0.0001347186 -0.0003363029)

fieldMinMax MinMaxT:region0 write:
    min(mag(U)) = 0 in cell 31649 at location (0.9373242 0.08596811 -0.05038675) on processor 0
    max(mag(U)) = 1.131838 in cell 42949 at location (-0.808 -0.008013848 0.00799895) on processor 2

volFieldValue volAvgFluid write:
    volAverage(region0) of U = (0.5712646 6.109555e-05 -0.0001624769)

Time = 29

smoothSolver:  Solving for Ux, Initial residual = 0.003047578, Final residual = 0.000267838, No Iterations 5
smoothSolver:  Solving for Uy, Initial residual = 0.06731417, Final residual = 0.004511651, No Iterations 3
smoothSolver:  Solving for Uz, Initial residual = 0.06765769, Final residual = 0.004678662, No Iterations 3
DICPCG:  Solving for p, Initial residual = 0.01415764, Final residual = 0.0001041889, No Iterations 6
DICPCG:  Solving for p, Initial residual = 0.001774985, Final residual = 1.770007e-05, No Iterations 9
DICPCG:  Solving for p, Initial residual = 0.0003076415, Final residual = 3.046448e-06, No Iterations 92
time step continuity errors : sum local = 5.270253e-05, global = -1.042298e-05, cumulative = -0.000134008
ExecutionTime = 6.14 s  ClockTime = 6 s

probesFluid : p
    avg: 100044.5
    min: 100044.5
    max: 100044.5

probesFluid : U
    avg: (1.129971 0.0001631093 -0.0003391487)
    min: (1.129971 0.0001631093 -0.0003391487)
    max: (1.129971 0.0001631093 -0.0003391487)

fieldMinMax MinMaxT:region0 write:
    min(mag(U)) = 0 in cell 31649 at location (0.9373242 0.08596811 -0.05038675) on processor 0
    max(mag(U)) = 1.132289 in cell 42949 at location (-0.808 -0.008013848 0.00799895) on processor 2

volFieldValue volAvgFluid write:
    volAverage(region0) of U = (0.5714783 6.169915e-05 -0.0001626108)

Time = 30

smoothSolver:  Solving for Ux, Initial residual = 0.002868405, Final residual = 0.0002569551, No Iterations 5
smoothSolver:  Solving for Uy, Initial residual = 0.06353207, Final residual = 0.004276914, No Iterations 3
smoothSolver:  Solving for Uz, Initial residual = 0.0638873, Final residual = 0.004443143, No Iterations 3
DICPCG:  Solving for p, Initial residual = 0.01315132, Final residual = 9.488597e-05, No Iterations 6
DICPCG:  Solving for p, Initial residual = 0.001634673, Final residual = 1.622308e-05, No Iterations 9
DICPCG:  Solving for p, Initial residual = 0.0002828093, Final residual = 2.788035e-06, No Iterations 124
time step continuity errors : sum local = 4.877825e-05, global = -1.881884e-06, cumulative = -0.0001358899
ExecutionTime = 6.31 s  ClockTime = 6 s

probesFluid : p
    avg: 100044.5
    min: 100044.5
    max: 100044.5

probesFluid : U
    avg: (1.130421 0.0001895124 -0.0003414606)
    min: (1.130421 0.0001895124 -0.0003414606)
    max: (1.130421 0.0001895124 -0.0003414606)

surfaceFieldValue MassFlowRate_inlet write:
    sum(inlet) of phi = -0.01785999

surfaceFieldValue MassFlowRate_outlet write:
    sum(outlet) of phi = 0.01785987

surfaceFieldValue inletAve_Values write:
    average(inlet) of U = (0.5313759 0.002352748 -6.210932e-05)
    average(inlet) of p = 100090

surfaceFieldValue outletAve_Values write:
    average(outlet) of U = (0.5229479 0.0009812129 -0.001402579)
    average(outlet) of p = 100000

fieldMinMax MinMaxT:region0 write:
    min(mag(U)) = 0 in cell 31649 at location (0.9373242 0.08596811 -0.05038675) on processor 0
    max(mag(U)) = 1.132678 in cell 42949 at location (-0.808 -0.008013848 0.00799895) on processor 2

volFieldValue volAvgFluid write:
    volAverage(region0) of U = (0.5716742 6.214754e-05 -0.0001626206)

Time = 31

smoothSolver:  Solving for Ux, Initial residual = 0.002701429, Final residual = 0.0002465711, No Iterations 5
smoothSolver:  Solving for Uy, Initial residual = 0.0599396, Final residual = 0.004050832, No Iterations 3
smoothSolver:  Solving for Uz, Initial residual = 0.06030478, Final residual = 0.004216728, No Iterations 3
DICPCG:  Solving for p, Initial residual = 0.01223014, Final residual = 8.711765e-05, No Iterations 6
DICPCG:  Solving for p, Initial residual = 0.001507437, Final residual = 1.491747e-05, No Iterations 9
DICPCG:  Solving for p, Initial residual = 0.0002605182, Final residual = 2.492351e-06, No Iterations 125
time step continuity errors : sum local = 4.406299e-05, global = -1.392596e-06, cumulative = -0.0001372825
ExecutionTime = 6.48 s  ClockTime = 6 s

probesFluid : p
    avg: 100044.5
    min: 100044.5
    max: 100044.5

probesFluid : U
    avg: (1.130821 0.0002141962 -0.0003435141)
    min: (1.130821 0.0002141962 -0.0003435141)
    max: (1.130821 0.0002141962 -0.0003435141)

fieldMinMax MinMaxT:region0 write:
    min(mag(U)) = 0 in cell 31649 at location (0.9373242 0.08596811 -0.05038675) on processor 0
    max(mag(U)) = 1.133026 in cell 42949 at location (-0.808 -0.008013848 0.00799895) on processor 2

volFieldValue volAvgFluid write:
    volAverage(region0) of U = (0.5718548 6.250434e-05 -0.0001625407)

Time = 32

smoothSolver:  Solving for Ux, Initial residual = 0.002544874, Final residual = 0.0002366977, No Iterations 5
smoothSolver:  Solving for Uy, Initial residual = 0.05656992, Final residual = 0.00383755, No Iterations 3
smoothSolver:  Solving for Uz, Initial residual = 0.056942, Final residual = 0.004004976, No Iterations 3
DICPCG:  Solving for p, Initial residual = 0.01138519, Final residual = 8.036644e-05, No Iterations 6
DICPCG:  Solving for p, Initial residual = 0.001391786, Final residual = 1.380864e-05, No Iterations 9
DICPCG:  Solving for p, Initial residual = 0.0002404159, Final residual = 2.392438e-06, No Iterations 124
time step continuity errors : sum local = 4.27088e-05, global = -1.582533e-06, cumulative = -0.000138865
ExecutionTime = 6.65 s  ClockTime = 6 s

probesFluid : p
    avg: 100044.5
    min: 100044.5
    max: 100044.5

probesFluid : U
    avg: (1.131179 0.0002372684 -0.000345188)
    min: (1.131179 0.0002372684 -0.000345188)
    max: (1.131179 0.0002372684 -0.000345188)

fieldMinMax MinMaxT:region0 write:
    min(mag(U)) = 0 in cell 31649 at location (0.9373242 0.08596811 -0.05038675) on processor 0
    max(mag(U)) = 1.133342 in cell 42949 at location (-0.808 -0.008013848 0.00799895) on processor 2

volFieldValue volAvgFluid write:
    volAverage(region0) of U = (0.572022 6.280075e-05 -0.0001623583)

Time = 33

smoothSolver:  Solving for Ux, Initial residual = 0.002398252, Final residual = 0.000227288, No Iterations 5
smoothSolver:  Solving for Uy, Initial residual = 0.05339863, Final residual = 0.003638887, No Iterations 3
smoothSolver:  Solving for Uz, Initial residual = 0.05377575, Final residual = 0.003809338, No Iterations 3
DICPCG:  Solving for p, Initial residual = 0.01060843, Final residual = 7.447672e-05, No Iterations 6
DICPCG:  Solving for p, Initial residual = 0.001286454, Final residual = 1.285679e-05, No Iterations 9
DICPCG:  Solving for p, Initial residual = 0.0002222003, Final residual = 2.085612e-06, No Iterations 124
time step continuity errors : sum local = 3.756845e-05, global = -1.269852e-06, cumulative = -0.0001401348
ExecutionTime = 6.81 s  ClockTime = 7 s

probesFluid : p
    avg: 100044.5
    min: 100044.5
    max: 100044.5

probesFluid : U
    avg: (1.131501 0.0002587008 -0.0003466193)
    min: (1.131501 0.0002587008 -0.0003466193)
    max: (1.131501 0.0002587008 -0.0003466193)

fieldMinMax MinMaxT:region0 write:
    min(mag(U)) = 0 in cell 31649 at location (0.9373242 0.08596811 -0.05038675) on processor 0
    max(mag(U)) = 1.13363 in cell 42949 at location (-0.808 -0.008013848 0.00799895) on processor 2

volFieldValue volAvgFluid write:
    volAverage(region0) of U = (0.5721772 6.299392e-05 -0.000162106)

Time = 34

smoothSolver:  Solving for Ux, Initial residual = 0.002260852, Final residual = 0.0002182938, No Iterations 5
smoothSolver:  Solving for Uy, Initial residual = 0.05041485, Final residual = 0.003455958, No Iterations 3
smoothSolver:  Solving for Uz, Initial residual = 0.05079454, Final residual = 0.003630695, No Iterations 3
DICPCG:  Solving for p, Initial residual = 0.009893234, Final residual = 6.913829e-05, No Iterations 6
DICPCG:  Solving for p, Initial residual = 0.001190341, Final residual = 1.03968e-05, No Iterations 10
DICPCG:  Solving for p, Initial residual = 0.0002048749, Final residual = 1.827304e-06, No Iterations 124
time step continuity errors : sum local = 3.319256e-05, global = -9.855219e-07, cumulative = -0.0001411204
ExecutionTime = 6.97 s  ClockTime = 7 s

probesFluid : p
    avg: 100044.5
    min: 100044.5
    max: 100044.5

probesFluid : U
    avg: (1.131793 0.000278572 -0.0003479213)
    min: (1.131793 0.000278572 -0.0003479213)
    max: (1.131793 0.000278572 -0.0003479213)

fieldMinMax MinMaxT:region0 write:
    min(mag(U)) = 0 in cell 31649 at location (0.9373242 0.08596811 -0.05038675) on processor 0
    max(mag(U)) = 1.133894 in cell 42949 at location (-0.808 -0.008013848 0.00799895) on processor 2

volFieldValue volAvgFluid write:
    volAverage(region0) of U = (0.5723218 6.306219e-05 -0.000161795)

Time = 35

smoothSolver:  Solving for Ux, Initial residual = 0.002131947, Final residual = 0.0002096878, No Iterations 5
smoothSolver:  Solving for Uy, Initial residual = 0.04760976, Final residual = 0.003288451, No Iterations 3
smoothSolver:  Solving for Uz, Initial residual = 0.04798985, Final residual = 0.003468255, No Iterations 3
DICPCG:  Solving for p, Initial residual = 0.009233991, Final residual = 6.425524e-05, No Iterations 6
DICPCG:  Solving for p, Initial residual = 0.0011025, Final residual = 9.721948e-06, No Iterations 10
DICPCG:  Solving for p, Initial residual = 0.0001897754, Final residual = 1.753106e-06, No Iterations 124
time step continuity errors : sum local = 3.209427e-05, global = -1.012474e-06, cumulative = -0.0001421328
ExecutionTime = 7.14 s  ClockTime = 7 s

probesFluid : p
    avg: 100044.5
    min: 100044.5
    max: 100044.5

probesFluid : U
    avg: (1.132059 0.0002969008 -0.0003491357)
    min: (1.132059 0.0002969008 -0.0003491357)
    max: (1.132059 0.0002969008 -0.0003491357)

surfaceFieldValue MassFlowRate_inlet write:
    sum(inlet) of phi = -0.01788444

surfaceFieldValue MassFlowRate_outlet write:
    sum(outlet) of phi = 0.01788438

surfaceFieldValue inletAve_Values write:
    average(inlet) of U = (0.5288718 0.002467032 0.000171648)
    average(inlet) of p = 100090

surfaceFieldValue outletAve_Values write:
    average(outlet) of U = (0.5228408 0.001042343 -0.001563603)
    average(outlet) of p = 100000

fieldMinMax MinMaxT:region0 write:
    min(mag(U)) = 0 in cell 31649 at location (0.9373242 0.08596811 -0.05038675) on processor 0
    max(mag(U)) = 1.134137 in cell 42949 at location (-0.808 -0.008013848 0.00799895) on processor 2

volFieldValue volAvgFluid write:
    volAverage(region0) of U = (0.5724568 6.301866e-05 -0.000161437)

Time = 36

smoothSolver:  Solving for Ux, Initial residual = 0.002010963, Final residual = 0.0001616781, No Iterations 6
smoothSolver:  Solving for Uy, Initial residual = 0.04497251, Final residual = 0.003135707, No Iterations 3
smoothSolver:  Solving for Uz, Initial residual = 0.04535267, Final residual = 0.003320852, No Iterations 3
DICPCG:  Solving for p, Initial residual = 0.008629007, Final residual = 6.61312e-05, No Iterations 6
DICPCG:  Solving for p, Initial residual = 0.0010259, Final residual = 8.849775e-06, No Iterations 11
DICPCG:  Solving for p, Initial residual = 0.0001796322, Final residual = 1.70647e-06, No Iterations 123
time step continuity errors : sum local = 3.146906e-05, global = -1.562542e-06, cumulative = -0.0001436954
ExecutionTime = 7.31 s  ClockTime = 7 s

probesFluid : p
    avg: 100044.5
    min: 100044.5
    max: 100044.5

probesFluid : U
    avg: (1.132323 0.0003147009 -0.0003496684)
    min: (1.132323 0.0003147009 -0.0003496684)
    max: (1.132323 0.0003147009 -0.0003496684)

fieldMinMax MinMaxT:region0 write:
    min(mag(U)) = 0 in cell 31649 at location (0.9373242 0.08596811 -0.05038675) on processor 0
    max(mag(U)) = 1.13438 in cell 42949 at location (-0.808 -0.008013848 0.00799895) on processor 2

volFieldValue volAvgFluid write:
    volAverage(region0) of U = (0.5725937 6.280655e-05 -0.0001609961)

Time = 37

smoothSolver:  Solving for Ux, Initial residual = 0.001894598, Final residual = 0.0001546876, No Iterations 6
smoothSolver:  Solving for Uy, Initial residual = 0.04259256, Final residual = 0.003032643, No Iterations 3
smoothSolver:  Solving for Uz, Initial residual = 0.04297242, Final residual = 0.003224529, No Iterations 3
DICPCG:  Solving for p, Initial residual = 0.008069141, Final residual = 6.302374e-05, No Iterations 6
DICPCG:  Solving for p, Initial residual = 0.0009532668, Final residual = 8.587674e-06, No Iterations 11
DICPCG:  Solving for p, Initial residual = 0.0001674667, Final residual = 1.575703e-06, No Iterations 123
time step continuity errors : sum local = 2.925604e-05, global = -1.38958e-06, cumulative = -0.000145085
ExecutionTime = 7.47 s  ClockTime = 7 s

probesFluid : p
    avg: 100044.5
    min: 100044.5
    max: 100044.5

probesFluid : U
    avg: (1.132564 0.0003313119 -0.0003501617)
    min: (1.132564 0.0003313119 -0.0003501617)
    max: (1.132564 0.0003313119 -0.0003501617)

fieldMinMax MinMaxT:region0 write:
    min(mag(U)) = 0 in cell 31649 at location (0.9373242 0.08596811 -0.05038675) on processor 0
    max(mag(U)) = 1.134606 in cell 42949 at location (-0.808 -0.008013848 0.00799895) on processor 2

volFieldValue volAvgFluid write:
    volAverage(region0) of U = (0.5727219 6.245941e-05 -0.0001605073)

Time = 38

smoothSolver:  Solving for Ux, Initial residual = 0.00178662, Final residual = 0.000148045, No Iterations 6
smoothSolver:  Solving for Uy, Initial residual = 0.04031819, Final residual = 0.002945394, No Iterations 3
smoothSolver:  Solving for Uz, Initial residual = 0.04070229, Final residual = 0.003142843, No Iterations 3
DICPCG:  Solving for p, Initial residual = 0.007550644, Final residual = 5.770341e-05, No Iterations 6
DICPCG:  Solving for p, Initial residual = 0.000885331, Final residual = 7.908154e-06, No Iterations 11
DICPCG:  Solving for p, Initial residual = 0.0001549695, Final residual = 1.384067e-06, No Iterations 124
time step continuity errors : sum local = 2.586205e-05, global = -1.031678e-06, cumulative = -0.0001461166
ExecutionTime = 7.63 s  ClockTime = 7 s

probesFluid : p
    avg: 100044.5
    min: 100044.5
    max: 100044.5

probesFluid : U
    avg: (1.132786 0.0003465224 -0.0003508291)
    min: (1.132786 0.0003465224 -0.0003508291)
    max: (1.132786 0.0003465224 -0.0003508291)

fieldMinMax MinMaxT:region0 write:
    min(mag(U)) = 0 in cell 31649 at location (0.9373242 0.08596811 -0.05038675) on processor 0
    max(mag(U)) = 1.134818 in cell 42949 at location (-0.808 -0.008013848 0.00799895) on processor 2

volFieldValue volAvgFluid write:
    volAverage(region0) of U = (0.572842 6.198704e-05 -0.0001599832)

Time = 39

smoothSolver:  Solving for Ux, Initial residual = 0.001685358, Final residual = 0.0001417345, No Iterations 6
smoothSolver:  Solving for Uy, Initial residual = 0.038161, Final residual = 0.002858951, No Iterations 3
smoothSolver:  Solving for Uz, Initial residual = 0.03854928, Final residual = 0.003061518, No Iterations 3
DICPCG:  Solving for p, Initial residual = 0.007069625, Final residual = 5.221414e-05, No Iterations 6
DICPCG:  Solving for p, Initial residual = 0.0008225704, Final residual = 7.22338e-06, No Iterations 11
DICPCG:  Solving for p, Initial residual = 0.0001431947, Final residual = 1.279352e-06, No Iterations 124
time step continuity errors : sum local = 2.404816e-05, global = -7.061688e-07, cumulative = -0.0001468228
ExecutionTime = 7.8 s  ClockTime = 8 s

probesFluid : p
    avg: 100044.5
    min: 100044.5
    max: 100044.5

probesFluid : U
    avg: (1.132989 0.0003603775 -0.0003514512)
    min: (1.132989 0.0003603775 -0.0003514512)
    max: (1.132989 0.0003603775 -0.0003514512)

fieldMinMax MinMaxT:region0 write:
    min(mag(U)) = 0 in cell 31649 at location (0.9373242 0.08596811 -0.05038675) on processor 0
    max(mag(U)) = 1.135016 in cell 42949 at location (-0.808 -0.008013848 0.00799895) on processor 2

volFieldValue volAvgFluid write:
    volAverage(region0) of U = (0.5729546 6.142895e-05 -0.0001594071)

Time = 40

smoothSolver:  Solving for Ux, Initial residual = 0.001590357, Final residual = 0.0001357504, No Iterations 6
smoothSolver:  Solving for Uy, Initial residual = 0.03611636, Final residual = 0.002769498, No Iterations 3
smoothSolver:  Solving for Uz, Initial residual = 0.03650793, Final residual = 0.002976658, No Iterations 3
DICPCG:  Solving for p, Initial residual = 0.006622942, Final residual = 4.735609e-05, No Iterations 6
DICPCG:  Solving for p, Initial residual = 0.0007648601, Final residual = 6.645645e-06, No Iterations 11
DICPCG:  Solving for p, Initial residual = 0.0001325054, Final residual = 1.182814e-06, No Iterations 124
time step continuity errors : sum local = 2.235769e-05, global = -7.876836e-07, cumulative = -0.0001476105
ExecutionTime = 7.96 s  ClockTime = 8 s

probesFluid : p
    avg: 100044.5
    min: 100044.5
    max: 100044.5

probesFluid : U
    avg: (1.133177 0.000372871 -0.0003521583)
    min: (1.133177 0.000372871 -0.0003521583)
    max: (1.133177 0.000372871 -0.0003521583)

surfaceFieldValue MassFlowRate_inlet write:
    sum(inlet) of phi = -0.01790335

surfaceFieldValue MassFlowRate_outlet write:
    sum(outlet) of phi = 0.01790331

surfaceFieldValue inletAve_Values write:
    average(inlet) of U = (0.5271064 0.002533874 0.0003731652)
    average(inlet) of p = 100090

surfaceFieldValue outletAve_Values write:
    average(outlet) of U = (0.5226746 0.001058827 -0.001686304)
    average(outlet) of p = 100000

fieldMinMax MinMaxT:region0 write:
    min(mag(U)) = 0 in cell 31649 at location (0.9373242 0.08596811 -0.05038675) on processor 0
    max(mag(U)) = 1.135201 in cell 42949 at location (-0.808 -0.008013848 0.00799895) on processor 2

volFieldValue volAvgFluid write:
    volAverage(region0) of U = (0.5730605 6.077311e-05 -0.0001587922)

Time = 41

smoothSolver:  Solving for Ux, Initial residual = 0.001501077, Final residual = 0.0001300709, No Iterations 6
smoothSolver:  Solving for Uy, Initial residual = 0.03418424, Final residual = 0.002678711, No Iterations 3
smoothSolver:  Solving for Uz, Initial residual = 0.0345774, Final residual = 0.002889182, No Iterations 3
DICPCG:  Solving for p, Initial residual = 0.006207621, Final residual = 4.328681e-05, No Iterations 6
DICPCG:  Solving for p, Initial residual = 0.0007117946, Final residual = 6.172162e-06, No Iterations 11
DICPCG:  Solving for p, Initial residual = 0.0001228882, Final residual = 1.114974e-06, No Iterations 124
time step continuity errors : sum local = 2.118563e-05, global = -7.688714e-07, cumulative = -0.0001483794
ExecutionTime = 8.13 s  ClockTime = 8 s

probesFluid : p
    avg: 100044.5
    min: 100044.5
    max: 100044.5

probesFluid : U
    avg: (1.133352 0.0003841304 -0.000352926)
    min: (1.133352 0.0003841304 -0.000352926)
    max: (1.133352 0.0003841304 -0.000352926)

fieldMinMax MinMaxT:region0 write:
    min(mag(U)) = 0 in cell 31649 at location (0.9373242 0.08596811 -0.05038675) on processor 0
    max(mag(U)) = 1.135374 in cell 42949 at location (-0.808 -0.008013848 0.00799895) on processor 2

volFieldValue volAvgFluid write:
    volAverage(region0) of U = (0.5731599 6.002958e-05 -0.0001581405)

Time = 42

smoothSolver:  Solving for Ux, Initial residual = 0.001417136, Final residual = 0.0001246675, No Iterations 6
smoothSolver:  Solving for Uy, Initial residual = 0.03236046, Final residual = 0.002589091, No Iterations 3
smoothSolver:  Solving for Uz, Initial residual = 0.03275356, Final residual = 0.00280191, No Iterations 3
DICPCG:  Solving for p, Initial residual = 0.005821119, Final residual = 3.987438e-05, No Iterations 6
DICPCG:  Solving for p, Initial residual = 0.0006629464, Final residual = 5.765014e-06, No Iterations 11
DICPCG:  Solving for p, Initial residual = 0.0001142013, Final residual = 1.071568e-06, No Iterations 124
time step continuity errors : sum local = 2.046048e-05, global = -7.461382e-07, cumulative = -0.0001491255
ExecutionTime = 8.3 s  ClockTime = 8 s

probesFluid : p
    avg: 100044.6
    min: 100044.6
    max: 100044.6

probesFluid : U
    avg: (1.133516 0.0003942657 -0.0003537409)
    min: (1.133516 0.0003942657 -0.0003537409)
    max: (1.133516 0.0003942657 -0.0003537409)

fieldMinMax MinMaxT:region0 write:
    min(mag(U)) = 0 in cell 31649 at location (0.9373242 0.08596811 -0.05038675) on processor 0
    max(mag(U)) = 1.135536 in cell 42949 at location (-0.808 -0.008013848 0.00799895) on processor 2

volFieldValue volAvgFluid write:
    volAverage(region0) of U = (0.5732535 5.920305e-05 -0.0001574558)

Time = 43

smoothSolver:  Solving for Ux, Initial residual = 0.001338178, Final residual = 0.0001195176, No Iterations 6
smoothSolver:  Solving for Uy, Initial residual = 0.03064052, Final residual = 0.002502866, No Iterations 3
smoothSolver:  Solving for Uz, Initial residual = 0.03103289, Final residual = 0.002717549, No Iterations 3
DICPCG:  Solving for p, Initial residual = 0.005461179, Final residual = 3.694715e-05, No Iterations 6
DICPCG:  Solving for p, Initial residual = 0.0006179025, Final residual = 5.404535e-06, No Iterations 11
DICPCG:  Solving for p, Initial residual = 0.0001063019, Final residual = 1.009838e-06, No Iterations 124
time step continuity errors : sum local = 1.936991e-05, global = -7.129542e-07, cumulative = -0.0001498384
ExecutionTime = 8.46 s  ClockTime = 8 s

probesFluid : p
    avg: 100044.6
    min: 100044.6
    max: 100044.6

probesFluid : U
    avg: (1.13367 0.0004033852 -0.0003545831)
    min: (1.13367 0.0004033852 -0.0003545831)
    max: (1.13367 0.0004033852 -0.0003545831)

fieldMinMax MinMaxT:region0 write:
    min(mag(U)) = 0 in cell 31649 at location (0.9373242 0.08596811 -0.05038675) on processor 0
    max(mag(U)) = 1.135689 in cell 42949 at location (-0.808 -0.008013848 0.00799895) on processor 2

volFieldValue volAvgFluid write:
    volAverage(region0) of U = (0.5733417 5.829844e-05 -0.0001567414)

Time = 44

smoothSolver:  Solving for Ux, Initial residual = 0.001263898, Final residual = 0.0001146035, No Iterations 6
smoothSolver:  Solving for Uy, Initial residual = 0.02901952, Final residual = 0.002421398, No Iterations 3
smoothSolver:  Solving for Uz, Initial residual = 0.02941096, Final residual = 0.002638042, No Iterations 3
DICPCG:  Solving for p, Initial residual = 0.005125668, Final residual = 3.436985e-05, No Iterations 6
DICPCG:  Solving for p, Initial residual = 0.000576304, Final residual = 5.084217e-06, No Iterations 11
DICPCG:  Solving for p, Initial residual = 9.907235e-05, Final residual = 9.041047e-07, No Iterations 124
time step continuity errors : sum local = 1.741581e-05, global = -6.640138e-07, cumulative = -0.0001505025
ExecutionTime = 8.63 s  ClockTime = 8 s

probesFluid : p
    avg: 100044.6
    min: 100044.6
    max: 100044.6

probesFluid : U
    avg: (1.133814 0.0004115884 -0.0003554392)
    min: (1.133814 0.0004115884 -0.0003554392)
    max: (1.133814 0.0004115884 -0.0003554392)

fieldMinMax MinMaxT:region0 write:
    min(mag(U)) = 0 in cell 31649 at location (0.9373242 0.08596811 -0.05038675) on processor 0
    max(mag(U)) = 1.135832 in cell 42949 at location (-0.808 -0.008013848 0.00799895) on processor 2

volFieldValue volAvgFluid write:
    volAverage(region0) of U = (0.5734248 5.732064e-05 -0.0001560005)

Time = 45

smoothSolver:  Solving for Ux, Initial residual = 0.001194009, Final residual = 0.0001099117, No Iterations 6
smoothSolver:  Solving for Uy, Initial residual = 0.02749196, Final residual = 0.002345319, No Iterations 3
smoothSolver:  Solving for Uz, Initial residual = 0.02788248, Final residual = 0.002564417, No Iterations 3
DICPCG:  Solving for p, Initial residual = 0.004812823, Final residual = 3.204822e-05, No Iterations 6
DICPCG:  Solving for p, Initial residual = 0.0005378498, Final residual = 4.79927e-06, No Iterations 11
DICPCG:  Solving for p, Initial residual = 9.242137e-05, Final residual = 8.775326e-07, No Iterations 124
time step continuity errors : sum local = 1.697136e-05, global = -6.285371e-07, cumulative = -0.000151131
ExecutionTime = 8.95 s  ClockTime = 9 s

probesFluid : p
    avg: 100044.6
    min: 100044.6
    max: 100044.6

probesFluid : U
    avg: (1.13395 0.0004189728 -0.0003563016)
    min: (1.13395 0.0004189728 -0.0003563016)
    max: (1.13395 0.0004189728 -0.0003563016)

surfaceFieldValue MassFlowRate_inlet write:
    sum(inlet) of phi = -0.01791721

surfaceFieldValue MassFlowRate_outlet write:
    sum(outlet) of phi = 0.01791717

surfaceFieldValue inletAve_Values write:
    average(inlet) of U = (0.5258342 0.002563828 0.0005468139)
    average(inlet) of p = 100090

surfaceFieldValue outletAve_Values write:
    average(outlet) of U = (0.5224952 0.001038844 -0.001775247)
    average(outlet) of p = 100000

fieldMinMax MinMaxT:region0 write:
    min(mag(U)) = 0 in cell 31649 at location (0.9373242 0.08596811 -0.05038675) on processor 0
    max(mag(U)) = 1.135967 in cell 42949 at location (-0.808 -0.008013848 0.00799895) on processor 2

volFieldValue volAvgFluid write:
    volAverage(region0) of U = (0.5735033 5.627494e-05 -0.0001552354)

Time = 46

smoothSolver:  Solving for Ux, Initial residual = 0.001128216, Final residual = 0.0001054312, No Iterations 6
smoothSolver:  Solving for Uy, Initial residual = 0.02605314, Final residual = 0.002274701, No Iterations 3
smoothSolver:  Solving for Uz, Initial residual = 0.02644267, Final residual = 0.002496249, No Iterations 3
DICPCG:  Solving for p, Initial residual = 0.004520809, Final residual = 2.992181e-05, No Iterations 6
DICPCG:  Solving for p, Initial residual = 0.0005022669, Final residual = 4.543346e-06, No Iterations 11
DICPCG:  Solving for p, Initial residual = 8.62812e-05, Final residual = 8.155958e-07, No Iterations 124
time step continuity errors : sum local = 1.583239e-05, global = -5.858587e-07, cumulative = -0.0001517169
ExecutionTime = 9.12 s  ClockTime = 9 s

probesFluid : p
    avg: 100044.6
    min: 100044.6
    max: 100044.6

probesFluid : U
    avg: (1.134077 0.0004256099 -0.0003571626)
    min: (1.134077 0.0004256099 -0.0003571626)
    max: (1.134077 0.0004256099 -0.0003571626)

fieldMinMax MinMaxT:region0 write:
    min(mag(U)) = 0 in cell 31649 at location (0.9373242 0.08596811 -0.05038675) on processor 0
    max(mag(U)) = 1.136094 in cell 42949 at location (-0.808 -0.008013848 0.00799895) on processor 2

volFieldValue volAvgFluid write:
    volAverage(region0) of U = (0.5735774 5.516592e-05 -0.0001544486)

Time = 47

smoothSolver:  Solving for Ux, Initial residual = 0.001066279, Final residual = 0.0001011521, No Iterations 6
smoothSolver:  Solving for Uy, Initial residual = 0.02469774, Final residual = 0.002208928, No Iterations 3
smoothSolver:  Solving for Uz, Initial residual = 0.0250864, Final residual = 0.002432871, No Iterations 3
DICPCG:  Solving for p, Initial residual = 0.00424805, Final residual = 2.795236e-05, No Iterations 6
DICPCG:  Solving for p, Initial residual = 0.0004693006, Final residual = 4.309127e-06, No Iterations 11
DICPCG:  Solving for p, Initial residual = 8.05982e-05, Final residual = 7.577388e-07, No Iterations 124
time step continuity errors : sum local = 1.476059e-05, global = -5.462089e-07, cumulative = -0.0001522631
ExecutionTime = 9.31 s  ClockTime = 9 s

probesFluid : p
    avg: 100044.6
    min: 100044.6
    max: 100044.6

probesFluid : U
    avg: (1.134197 0.0004315693 -0.0003580248)
    min: (1.134197 0.0004315693 -0.0003580248)
    max: (1.134197 0.0004315693 -0.0003580248)

fieldMinMax MinMaxT:region0 write:
    min(mag(U)) = 0 in cell 31649 at location (0.9373242 0.08596811 -0.05038675) on processor 0
    max(mag(U)) = 1.136215 in cell 42949 at location (-0.808 -0.008013848 0.00799895) on processor 2

volFieldValue volAvgFluid write:
    volAverage(region0) of U = (0.5736476 5.399833e-05 -0.0001536425)

Time = 48

smoothSolver:  Solving for Ux, Initial residual = 0.001007964, Final residual = 9.706548e-05, No Iterations 6
smoothSolver:  Solving for Uy, Initial residual = 0.02342083, Final residual = 0.002147445, No Iterations 3
smoothSolver:  Solving for Uz, Initial residual = 0.02380791, Final residual = 0.002373545, No Iterations 3
DICPCG:  Solving for p, Initial residual = 0.003993108, Final residual = 3.98794e-05, No Iterations 5
DICPCG:  Solving for p, Initial residual = 0.0004437783, Final residual = 4.135096e-06, No Iterations 11
DICPCG:  Solving for p, Initial residual = 7.619566e-05, Final residual = 7.101627e-07, No Iterations 125
time step continuity errors : sum local = 1.387899e-05, global = -3.455829e-07, cumulative = -0.0001526087
ExecutionTime = 9.5 s  ClockTime = 9 s

probesFluid : p
    avg: 100044.6
    min: 100044.6
    max: 100044.6

probesFluid : U
    avg: (1.13431 0.0004368467 -0.0003589226)
    min: (1.13431 0.0004368467 -0.0003589226)
    max: (1.13431 0.0004368467 -0.0003589226)

fieldMinMax MinMaxT:region0 write:
    min(mag(U)) = 0 in cell 31649 at location (0.9373242 0.08596811 -0.05038675) on processor 0
    max(mag(U)) = 1.136329 in cell 42949 at location (-0.808 -0.008013848 0.00799895) on processor 2

volFieldValue volAvgFluid write:
    volAverage(region0) of U = (0.573714 5.277601e-05 -0.000152823)

Time = 49

smoothSolver:  Solving for Ux, Initial residual = 0.0009530509, Final residual = 9.316154e-05, No Iterations 6
smoothSolver:  Solving for Uy, Initial residual = 0.02221745, Final residual = 0.002089828, No Iterations 3
smoothSolver:  Solving for Uz, Initial residual = 0.0226024, Final residual = 0.00176144, No Iterations 4
DICPCG:  Solving for p, Initial residual = 0.003754971, Final residual = 3.630033e-05, No Iterations 5
DICPCG:  Solving for p, Initial residual = 0.0004150045, Final residual = 4.058981e-06, No Iterations 11
DICPCG:  Solving for p, Initial residual = 7.093438e-05, Final residual = 6.411787e-07, No Iterations 125
time step continuity errors : sum local = 1.256907e-05, global = -2.814062e-07, cumulative = -0.0001528901
ExecutionTime = 9.69 s  ClockTime = 9 s

probesFluid : p
    avg: 100044.6
    min: 100044.6
    max: 100044.6

probesFluid : U
    avg: (1.134415 0.0004418295 -0.0003596036)
    min: (1.134415 0.0004418295 -0.0003596036)
    max: (1.134415 0.0004418295 -0.0003596036)

fieldMinMax MinMaxT:region0 write:
    min(mag(U)) = 0 in cell 31649 at location (0.9373242 0.08596811 -0.05038675) on processor 0
    max(mag(U)) = 1.136435 in cell 42949 at location (-0.808 -0.008013848 0.00799895) on processor 2

volFieldValue volAvgFluid write:
    volAverage(region0) of U = (0.5737762 5.150127e-05 -0.0001519664)

Time = 50

smoothSolver:  Solving for Ux, Initial residual = 0.0009017267, Final residual = 8.947298e-05, No Iterations 6
smoothSolver:  Solving for Uy, Initial residual = 0.02107615, Final residual = 0.002028169, No Iterations 3
smoothSolver:  Solving for Uz, Initial residual = 0.02139743, Final residual = 0.001679271, No Iterations 4
DICPCG:  Solving for p, Initial residual = 0.003531846, Final residual = 3.409898e-05, No Iterations 5
DICPCG:  Solving for p, Initial residual = 0.0003884642, Final residual = 3.323682e-06, No Iterations 12
DICPCG:  Solving for p, Initial residual = 6.621104e-05, Final residual = 5.670417e-07, No Iterations 125
time step continuity errors : sum local = 1.114754e-05, global = -2.413569e-07, cumulative = -0.0001531314
ExecutionTime = 9.86 s  ClockTime = 10 s

probesFluid : p
    avg: 100044.6
    min: 100044.6
    max: 100044.6

probesFluid : U
    avg: (1.134513 0.0004463221 -0.0003602011)
    min: (1.134513 0.0004463221 -0.0003602011)
    max: (1.134513 0.0004463221 -0.0003602011)

surfaceFieldValue MassFlowRate_inlet write:
    sum(inlet) of phi = -0.01792757

surfaceFieldValue MassFlowRate_outlet write:
    sum(outlet) of phi = 0.01792756

surfaceFieldValue inletAve_Values write:
    average(inlet) of U = (0.5248952 0.002566289 0.0007055719)
    average(inlet) of p = 100090

surfaceFieldValue outletAve_Values write:
    average(outlet) of U = (0.5223182 0.0009912167 -0.001839135)
    average(outlet) of p = 100000

fieldMinMax MinMaxT:region0 write:
    min(mag(U)) = 0 in cell 31649 at location (0.9373242 0.08596811 -0.05038675) on processor 0
    max(mag(U)) = 1.136533 in cell 42949 at location (-0.808 -0.008013848 0.00799895) on processor 2

volFieldValue volAvgFluid write:
    volAverage(region0) of U = (0.5738349 5.018105e-05 -0.0001510862)

Time = 51

smoothSolver:  Solving for Ux, Initial residual = 0.0008531346, Final residual = 6.906841e-05, No Iterations 7
smoothSolver:  Solving for Uy, Initial residual = 0.01999788, Final residual = 0.001969619, No Iterations 3
smoothSolver:  Solving for Uz, Initial residual = 0.02027375, Final residual = 0.001600765, No Iterations 4
DICPCG:  Solving for p, Initial residual = 0.003324369, Final residual = 2.156195e-05, No Iterations 6
DICPCG:  Solving for p, Initial residual = 0.0003604766, Final residual = 3.537823e-06, No Iterations 11
DICPCG:  Solving for p, Initial residual = 6.194949e-05, Final residual = 6.170895e-07, No Iterations 123
time step continuity errors : sum local = 1.216404e-05, global = -4.995524e-07, cumulative = -0.000153631
ExecutionTime = 10.03 s  ClockTime = 10 s

probesFluid : p
    avg: 100044.6
    min: 100044.6
    max: 100044.6

probesFluid : U
    avg: (1.134612 0.000450505 -0.0003606683)
    min: (1.134612 0.000450505 -0.0003606683)
    max: (1.134612 0.000450505 -0.0003606683)

fieldMinMax MinMaxT:region0 write:
    min(mag(U)) = 0 in cell 31649 at location (0.9373242 0.08596811 -0.05038675) on processor 0
    max(mag(U)) = 1.136633 in cell 42950 at location (-0.824 -0.008013848 0.00799895) on processor 2

volFieldValue volAvgFluid write:
    volAverage(region0) of U = (0.5738943 4.875837e-05 -0.0001501476)

Time = 52

smoothSolver:  Solving for Ux, Initial residual = 0.0008061044, Final residual = 6.614784e-05, No Iterations 7
smoothSolver:  Solving for Uy, Initial residual = 0.01902002, Final residual = 0.001471286, No Iterations 4
smoothSolver:  Solving for Uz, Initial residual = 0.01925999, Final residual = 0.00155134, No Iterations 4
DICPCG:  Solving for p, Initial residual = 0.003129727, Final residual = 3.044059e-05, No Iterations 5
DICPCG:  Solving for p, Initial residual = 0.0003415873, Final residual = 3.326882e-06, No Iterations 11
DICPCG:  Solving for p, Initial residual = 5.821511e-05, Final residual = 5.761635e-07, No Iterations 122
time step continuity errors : sum local = 1.138587e-05, global = -4.861674e-07, cumulative = -0.0001541171
ExecutionTime = 10.2 s  ClockTime = 10 s

probesFluid : p
    avg: 100044.6
    min: 100044.6
    max: 100044.6

probesFluid : U
    avg: (1.134705 0.0004546899 -0.000360937)
    min: (1.134705 0.0004546899 -0.000360937)
    max: (1.134705 0.0004546899 -0.000360937)

fieldMinMax MinMaxT:region0 write:
    min(mag(U)) = 0 in cell 31649 at location (0.9373242 0.08596811 -0.05038675) on processor 0
    max(mag(U)) = 1.136734 in cell 42950 at location (-0.824 -0.008013848 0.00799895) on processor 2

volFieldValue volAvgFluid write:
    volAverage(region0) of U = (0.5739503 4.718458e-05 -0.0001491847)

Time = 53

smoothSolver:  Solving for Ux, Initial residual = 0.0007624955, Final residual = 6.339077e-05, No Iterations 7
smoothSolver:  Solving for Uy, Initial residual = 0.01803185, Final residual = 0.00141453, No Iterations 4
smoothSolver:  Solving for Uz, Initial residual = 0.01830292, Final residual = 0.00151365, No Iterations 4
DICPCG:  Solving for p, Initial residual = 0.002947116, Final residual = 2.895584e-05, No Iterations 5
DICPCG:  Solving for p, Initial residual = 0.000320359, Final residual = 2.737014e-06, No Iterations 12
DICPCG:  Solving for p, Initial residual = 5.457261e-05, Final residual = 5.052367e-07, No Iterations 124
time step continuity errors : sum local = 1.000781e-05, global = -3.4496e-07, cumulative = -0.0001544621
ExecutionTime = 10.36 s  ClockTime = 10 s

probesFluid : p
    avg: 100044.6
    min: 100044.6
    max: 100044.6

probesFluid : U
    avg: (1.134793 0.0004581265 -0.0003613087)
    min: (1.134793 0.0004581265 -0.0003613087)
    max: (1.134793 0.0004581265 -0.0003613087)

fieldMinMax MinMaxT:region0 write:
    min(mag(U)) = 0 in cell 31649 at location (0.9373242 0.08596811 -0.05038675) on processor 0
    max(mag(U)) = 1.136829 in cell 42950 at location (-0.824 -0.008013848 0.00799895) on processor 2

volFieldValue volAvgFluid write:
    volAverage(region0) of U = (0.5740033 4.561744e-05 -0.0001482176)

Time = 54

smoothSolver:  Solving for Ux, Initial residual = 0.0007213165, Final residual = 6.076259e-05, No Iterations 7
smoothSolver:  Solving for Uy, Initial residual = 0.01710911, Final residual = 0.001358402, No Iterations 4
smoothSolver:  Solving for Uz, Initial residual = 0.01740459, Final residual = 0.001483393, No Iterations 4
DICPCG:  Solving for p, Initial residual = 0.002775775, Final residual = 2.722845e-05, No Iterations 5
DICPCG:  Solving for p, Initial residual = 0.0003003098, Final residual = 2.655364e-06, No Iterations 12
DICPCG:  Solving for p, Initial residual = 5.120119e-05, Final residual = 4.438688e-07, No Iterations 125
time step continuity errors : sum local = 8.811697e-06, global = -2.700576e-07, cumulative = -0.0001547322
ExecutionTime = 10.53 s  ClockTime = 10 s

probesFluid : p
    avg: 100044.6
    min: 100044.6
    max: 100044.6

probesFluid : U
    avg: (1.134876 0.0004609619 -0.0003617619)
    min: (1.134876 0.0004609619 -0.0003617619)
    max: (1.134876 0.0004609619 -0.0003617619)

fieldMinMax MinMaxT:region0 write:
    min(mag(U)) = 0 in cell 31649 at location (0.9373242 0.08596811 -0.05038675) on processor 0
[...]
DICPCG:  Solving for p, Initial residual = 9.73175e-08, Final residual = 9.73175e-08, No Iterations 0
time step continuity errors : sum local = 2.002315e-06, global = 5.833821e-08, cumulative = -0.0003881289
ExecutionTime = 177.47 s  ClockTime = 177 s

probesFluid : p
    avg: 100044.6
    min: 100044.6
    max: 100044.6

probesFluid : U
    avg: (1.137005 0.0004682737 -0.0003907416)
    min: (1.137005 0.0004682737 -0.0003907416)
    max: (1.137005 0.0004682737 -0.0003907416)

fieldMinMax MinMaxT:region0 write:
    min(mag(U)) = 0 in cell 31649 at location (0.9373242 0.08596811 -0.05038675) on processor 0
    max(mag(U)) = 1.145908 in cell 30070 at location (0.98 0.003986154 -0.004001051) on processor 0

volFieldValue volAvgFluid write:
    volAverage(region0) of U = (0.575289 -9.489712e-05 -6.26498e-05)

Time = 1988

smoothSolver:  Solving for Ux, Initial residual = 2.131587e-09, Final residual = 2.131587e-09, No Iterations 0
smoothSolver:  Solving for Uy, Initial residual = 3.241757e-08, Final residual = 9.844217e-09, No Iterations 1
smoothSolver:  Solving for Uz, Initial residual = 3.474819e-08, Final residual = 3.985265e-09, No Iterations 2
DICPCG:  Solving for p, Initial residual = 9.707416e-08, Final residual = 9.707416e-08, No Iterations 0
DICPCG:  Solving for p, Initial residual = 9.707416e-08, Final residual = 9.707416e-08, No Iterations 0
DICPCG:  Solving for p, Initial residual = 9.707416e-08, Final residual = 9.707416e-08, No Iterations 0
time step continuity errors : sum local = 1.99731e-06, global = 5.167388e-08, cumulative = -0.0003880772
ExecutionTime = 177.55 s  ClockTime = 177 s

probesFluid : p
    avg: 100044.6
    min: 100044.6
    max: 100044.6

probesFluid : U
    avg: (1.137005 0.0004682737 -0.0003907416)
    min: (1.137005 0.0004682737 -0.0003907416)
    max: (1.137005 0.0004682737 -0.0003907416)

fieldMinMax MinMaxT:region0 write:
    min(mag(U)) = 0 in cell 31649 at location (0.9373242 0.08596811 -0.05038675) on processor 0
    max(mag(U)) = 1.145908 in cell 30070 at location (0.98 0.003986154 -0.004001051) on processor 0

volFieldValue volAvgFluid write:
    volAverage(region0) of U = (0.575289 -9.489712e-05 -6.26498e-05)

Time = 1989

smoothSolver:  Solving for Ux, Initial residual = 1.907607e-09, Final residual = 1.907607e-09, No Iterations 0
smoothSolver:  Solving for Uy, Initial residual = 2.4902e-08, Final residual = 8.819081e-09, No Iterations 1
smoothSolver:  Solving for Uz, Initial residual = 2.405058e-08, Final residual = 8.404806e-09, No Iterations 1
DICPCG:  Solving for p, Initial residual = 9.725335e-08, Final residual = 9.725335e-08, No Iterations 0
DICPCG:  Solving for p, Initial residual = 9.725335e-08, Final residual = 9.725335e-08, No Iterations 0
DICPCG:  Solving for p, Initial residual = 9.725335e-08, Final residual = 9.725335e-08, No Iterations 0
time step continuity errors : sum local = 2.000993e-06, global = 5.878644e-08, cumulative = -0.0003880184
ExecutionTime = 177.62 s  ClockTime = 177 s

probesFluid : p
    avg: 100044.6
    min: 100044.6
    max: 100044.6

probesFluid : U
    avg: (1.137005 0.0004682737 -0.0003907416)
    min: (1.137005 0.0004682737 -0.0003907416)
    max: (1.137005 0.0004682737 -0.0003907416)

fieldMinMax MinMaxT:region0 write:
    min(mag(U)) = 0 in cell 31649 at location (0.9373242 0.08596811 -0.05038675) on processor 0
    max(mag(U)) = 1.145908 in cell 30070 at location (0.98 0.003986154 -0.004001051) on processor 0

volFieldValue volAvgFluid write:
    volAverage(region0) of U = (0.575289 -9.489712e-05 -6.26498e-05)

Time = 1990

smoothSolver:  Solving for Ux, Initial residual = 1.959635e-09, Final residual = 1.959635e-09, No Iterations 0
smoothSolver:  Solving for Uy, Initial residual = 2.218563e-08, Final residual = 7.404496e-09, No Iterations 1
smoothSolver:  Solving for Uz, Initial residual = 2.259404e-08, Final residual = 6.812425e-09, No Iterations 1
DICPCG:  Solving for p, Initial residual = 9.706222e-08, Final residual = 9.706222e-08, No Iterations 0
DICPCG:  Solving for p, Initial residual = 9.706222e-08, Final residual = 9.706222e-08, No Iterations 0
DICPCG:  Solving for p, Initial residual = 9.706222e-08, Final residual = 9.706222e-08, No Iterations 0
time step continuity errors : sum local = 1.997065e-06, global = 5.213679e-08, cumulative = -0.0003879663
ExecutionTime = 177.7 s  ClockTime = 177 s

probesFluid : p
    avg: 100044.6
    min: 100044.6
    max: 100044.6

probesFluid : U
    avg: (1.137005 0.0004682737 -0.0003907416)
    min: (1.137005 0.0004682737 -0.0003907416)
    max: (1.137005 0.0004682737 -0.0003907416)

surfaceFieldValue MassFlowRate_inlet write:
    sum(inlet) of phi = -0.01797327

surfaceFieldValue MassFlowRate_outlet write:
    sum(outlet) of phi = 0.01797327

surfaceFieldValue inletAve_Values write:
    average(inlet) of U = (0.521549 0.0008168667 0.00206309)
    average(inlet) of p = 100090

surfaceFieldValue outletAve_Values write:
    average(outlet) of U = (0.5210292 -0.00162538 -0.0007278093)
    average(outlet) of p = 100000

fieldMinMax MinMaxT:region0 write:
    min(mag(U)) = 0 in cell 31649 at location (0.9373242 0.08596811 -0.05038675) on processor 0
    max(mag(U)) = 1.145908 in cell 30070 at location (0.98 0.003986154 -0.004001051) on processor 0

volFieldValue volAvgFluid write:
    volAverage(region0) of U = (0.575289 -9.489712e-05 -6.26498e-05)

Time = 1991

smoothSolver:  Solving for Ux, Initial residual = 2.109939e-09, Final residual = 2.109939e-09, No Iterations 0
smoothSolver:  Solving for Uy, Initial residual = 2.249811e-08, Final residual = 8.281548e-09, No Iterations 1
smoothSolver:  Solving for Uz, Initial residual = 2.150055e-08, Final residual = 7.694051e-09, No Iterations 1
DICPCG:  Solving for p, Initial residual = 9.731796e-08, Final residual = 9.731796e-08, No Iterations 0
DICPCG:  Solving for p, Initial residual = 9.731796e-08, Final residual = 9.731796e-08, No Iterations 0
DICPCG:  Solving for p, Initial residual = 9.731796e-08, Final residual = 9.731796e-08, No Iterations 0
time step continuity errors : sum local = 2.002322e-06, global = 5.943014e-08, cumulative = -0.0003879068
ExecutionTime = 177.78 s  ClockTime = 178 s

probesFluid : p
    avg: 100044.6
    min: 100044.6
    max: 100044.6

probesFluid : U
    avg: (1.137005 0.0004682737 -0.0003907416)
    min: (1.137005 0.0004682737 -0.0003907416)
    max: (1.137005 0.0004682737 -0.0003907416)

fieldMinMax MinMaxT:region0 write:
    min(mag(U)) = 0 in cell 31649 at location (0.9373242 0.08596811 -0.05038675) on processor 0
    max(mag(U)) = 1.145908 in cell 30070 at location (0.98 0.003986154 -0.004001051) on processor 0

volFieldValue volAvgFluid write:
    volAverage(region0) of U = (0.575289 -9.489712e-05 -6.26498e-05)

Time = 1992

smoothSolver:  Solving for Ux, Initial residual = 2.337682e-09, Final residual = 2.337682e-09, No Iterations 0
smoothSolver:  Solving for Uy, Initial residual = 2.454461e-08, Final residual = 8.566636e-09, No Iterations 1
smoothSolver:  Solving for Uz, Initial residual = 2.304389e-08, Final residual = 7.551884e-09, No Iterations 1
DICPCG:  Solving for p, Initial residual = 9.711452e-08, Final residual = 9.711452e-08, No Iterations 0
DICPCG:  Solving for p, Initial residual = 9.711452e-08, Final residual = 9.711452e-08, No Iterations 0
DICPCG:  Solving for p, Initial residual = 9.711452e-08, Final residual = 9.711452e-08, No Iterations 0
time step continuity errors : sum local = 1.998142e-06, global = 5.211965e-08, cumulative = -0.0003878547
ExecutionTime = 177.85 s  ClockTime = 178 s

probesFluid : p
    avg: 100044.6
    min: 100044.6
    max: 100044.6

probesFluid : U
    avg: (1.137005 0.0004682737 -0.0003907416)
    min: (1.137005 0.0004682737 -0.0003907416)
    max: (1.137005 0.0004682737 -0.0003907416)

fieldMinMax MinMaxT:region0 write:
    min(mag(U)) = 0 in cell 31649 at location (0.9373242 0.08596811 -0.05038675) on processor 0
    max(mag(U)) = 1.145908 in cell 30070 at location (0.98 0.003986154 -0.004001051) on processor 0

volFieldValue volAvgFluid write:
    volAverage(region0) of U = (0.575289 -9.489712e-05 -6.26498e-05)

Time = 1993

smoothSolver:  Solving for Ux, Initial residual = 2.571086e-09, Final residual = 2.571086e-09, No Iterations 0
smoothSolver:  Solving for Uy, Initial residual = 2.643424e-08, Final residual = 9.50095e-09, No Iterations 1
smoothSolver:  Solving for Uz, Initial residual = 2.415168e-08, Final residual = 8.514659e-09, No Iterations 1
DICPCG:  Solving for p, Initial residual = 9.740461e-08, Final residual = 9.740461e-08, No Iterations 0
DICPCG:  Solving for p, Initial residual = 9.740461e-08, Final residual = 9.740461e-08, No Iterations 0
DICPCG:  Solving for p, Initial residual = 9.740461e-08, Final residual = 9.740461e-08, No Iterations 0
time step continuity errors : sum local = 2.004108e-06, global = 6.013182e-08, cumulative = -0.0003877946
ExecutionTime = 177.93 s  ClockTime = 178 s

probesFluid : p
    avg: 100044.6
    min: 100044.6
    max: 100044.6

probesFluid : U
    avg: (1.137005 0.0004682737 -0.0003907416)
    min: (1.137005 0.0004682737 -0.0003907416)
    max: (1.137005 0.0004682737 -0.0003907416)

fieldMinMax MinMaxT:region0 write:
    min(mag(U)) = 0 in cell 31649 at location (0.9373242 0.08596811 -0.05038675) on processor 0
    max(mag(U)) = 1.145908 in cell 30070 at location (0.98 0.003986154 -0.004001051) on processor 0

volFieldValue volAvgFluid write:
    volAverage(region0) of U = (0.575289 -9.489712e-05 -6.26498e-05)

Time = 1994

smoothSolver:  Solving for Ux, Initial residual = 2.832443e-09, Final residual = 2.832443e-09, No Iterations 0
smoothSolver:  Solving for Uy, Initial residual = 2.883165e-08, Final residual = 4.606744e-09, No Iterations 2
smoothSolver:  Solving for Uz, Initial residual = 2.646781e-08, Final residual = 8.86222e-09, No Iterations 1
DICPCG:  Solving for p, Initial residual = 9.72053e-08, Final residual = 9.72053e-08, No Iterations 0
DICPCG:  Solving for p, Initial residual = 9.72053e-08, Final residual = 9.72053e-08, No Iterations 0
DICPCG:  Solving for p, Initial residual = 9.72053e-08, Final residual = 9.72053e-08, No Iterations 0
time step continuity errors : sum local = 2.000004e-06, global = 5.185118e-08, cumulative = -0.0003877427
ExecutionTime = 178.01 s  ClockTime = 178 s

probesFluid : p
    avg: 100044.6
    min: 100044.6
    max: 100044.6

probesFluid : U
    avg: (1.137005 0.0004682737 -0.0003907416)
    min: (1.137005 0.0004682737 -0.0003907416)
    max: (1.137005 0.0004682737 -0.0003907416)

fieldMinMax MinMaxT:region0 write:
    min(mag(U)) = 0 in cell 31649 at location (0.9373242 0.08596811 -0.05038675) on processor 0
    max(mag(U)) = 1.145908 in cell 30070 at location (0.98 0.003986154 -0.004001051) on processor 0

volFieldValue volAvgFluid write:
    volAverage(region0) of U = (0.575289 -9.489712e-05 -6.26498e-05)

Time = 1995

smoothSolver:  Solving for Ux, Initial residual = 3.096104e-09, Final residual = 3.096104e-09, No Iterations 0
smoothSolver:  Solving for Uy, Initial residual = 3.250356e-08, Final residual = 5.552314e-09, No Iterations 2
smoothSolver:  Solving for Uz, Initial residual = 2.861778e-08, Final residual = 9.830357e-09, No Iterations 1
DICPCG:  Solving for p, Initial residual = 9.751149e-08, Final residual = 9.751149e-08, No Iterations 0
DICPCG:  Solving for p, Initial residual = 9.751149e-08, Final residual = 9.751149e-08, No Iterations 0
DICPCG:  Solving for p, Initial residual = 9.751149e-08, Final residual = 9.751149e-08, No Iterations 0
time step continuity errors : sum local = 2.00631e-06, global = 6.091663e-08, cumulative = -0.0003876818
ExecutionTime = 178.11 s  ClockTime = 178 s

probesFluid : p
    avg: 100044.6
    min: 100044.6
    max: 100044.6

probesFluid : U
    avg: (1.137005 0.0004682737 -0.0003907416)
    min: (1.137005 0.0004682737 -0.0003907416)
    max: (1.137005 0.0004682737 -0.0003907416)

surfaceFieldValue MassFlowRate_inlet write:
    sum(inlet) of phi = -0.01797327

surfaceFieldValue MassFlowRate_outlet write:
    sum(outlet) of phi = 0.01797327

surfaceFieldValue inletAve_Values write:
    average(inlet) of U = (0.521549 0.0008168667 0.00206309)
    average(inlet) of p = 100090

surfaceFieldValue outletAve_Values write:
    average(outlet) of U = (0.5210292 -0.001625382 -0.00072781)
    average(outlet) of p = 100000

fieldMinMax MinMaxT:region0 write:
    min(mag(U)) = 0 in cell 31649 at location (0.9373242 0.08596811 -0.05038675) on processor 0
    max(mag(U)) = 1.145908 in cell 30070 at location (0.98 0.003986154 -0.004001051) on processor 0

volFieldValue volAvgFluid write:
    volAverage(region0) of U = (0.575289 -9.489712e-05 -6.26498e-05)

Time = 1996

smoothSolver:  Solving for Ux, Initial residual = 3.38729e-09, Final residual = 3.38729e-09, No Iterations 0
smoothSolver:  Solving for Uy, Initial residual = 3.527046e-08, Final residual = 5.730221e-09, No Iterations 2
smoothSolver:  Solving for Uz, Initial residual = 3.149169e-08, Final residual = 3.868413e-09, No Iterations 2
DICPCG:  Solving for p, Initial residual = 9.731036e-08, Final residual = 9.731036e-08, No Iterations 0
DICPCG:  Solving for p, Initial residual = 9.731036e-08, Final residual = 9.731036e-08, No Iterations 0
DICPCG:  Solving for p, Initial residual = 9.731036e-08, Final residual = 9.731036e-08, No Iterations 0
time step continuity errors : sum local = 2.002168e-06, global = 5.139479e-08, cumulative = -0.0003876304
ExecutionTime = 178.19 s  ClockTime = 178 s

probesFluid : p
    avg: 100044.6
    min: 100044.6
    max: 100044.6

probesFluid : U
    avg: (1.137005 0.0004682737 -0.0003907416)
    min: (1.137005 0.0004682737 -0.0003907416)
    max: (1.137005 0.0004682737 -0.0003907416)

fieldMinMax MinMaxT:region0 write:
    min(mag(U)) = 0 in cell 31649 at location (0.9373242 0.08596811 -0.05038675) on processor 0
    max(mag(U)) = 1.145908 in cell 30070 at location (0.98 0.003986154 -0.004001051) on processor 0

volFieldValue volAvgFluid write:
    volAverage(region0) of U = (0.575289 -9.489712e-05 -6.26498e-05)

Time = 1997

smoothSolver:  Solving for Ux, Initial residual = 3.683747e-09, Final residual = 3.683747e-09, No Iterations 0
smoothSolver:  Solving for Uy, Initial residual = 3.819726e-08, Final residual = 6.328117e-09, No Iterations 2
smoothSolver:  Solving for Uz, Initial residual = 3.488685e-08, Final residual = 4.691832e-09, No Iterations 2
DICPCG:  Solving for p, Initial residual = 9.763709e-08, Final residual = 9.763709e-08, No Iterations 0
DICPCG:  Solving for p, Initial residual = 9.763709e-08, Final residual = 9.763709e-08, No Iterations 0
DICPCG:  Solving for p, Initial residual = 9.763709e-08, Final residual = 9.763709e-08, No Iterations 0
time step continuity errors : sum local = 2.008889e-06, global = 6.18201e-08, cumulative = -0.0003875686
ExecutionTime = 178.26 s  ClockTime = 178 s

probesFluid : p
    avg: 100044.6
    min: 100044.6
    max: 100044.6

probesFluid : U
    avg: (1.137005 0.0004682737 -0.0003907416)
    min: (1.137005 0.0004682737 -0.0003907416)
    max: (1.137005 0.0004682737 -0.0003907416)

fieldMinMax MinMaxT:region0 write:
    min(mag(U)) = 0 in cell 31649 at location (0.9373242 0.08596811 -0.05038675) on processor 0
    max(mag(U)) = 1.145908 in cell 30070 at location (0.98 0.003986154 -0.004001051) on processor 0

volFieldValue volAvgFluid write:
    volAverage(region0) of U = (0.575289 -9.489712e-05 -6.26498e-05)

Time = 1998

smoothSolver:  Solving for Ux, Initial residual = 4.008523e-09, Final residual = 4.008523e-09, No Iterations 0
smoothSolver:  Solving for Uy, Initial residual = 4.139277e-08, Final residual = 6.69943e-09, No Iterations 2
smoothSolver:  Solving for Uz, Initial residual = 3.795804e-08, Final residual = 4.901033e-09, No Iterations 2
DICPCG:  Solving for p, Initial residual = 9.744177e-08, Final residual = 9.744177e-08, No Iterations 0
DICPCG:  Solving for p, Initial residual = 9.744177e-08, Final residual = 9.744177e-08, No Iterations 0
DICPCG:  Solving for p, Initial residual = 9.744177e-08, Final residual = 9.744177e-08, No Iterations 0
time step continuity errors : sum local = 2.004874e-06, global = 5.076182e-08, cumulative = -0.0003875178
ExecutionTime = 178.34 s  ClockTime = 178 s

probesFluid : p
    avg: 100044.6
    min: 100044.6
    max: 100044.6

probesFluid : U
    avg: (1.137005 0.0004682737 -0.0003907416)
    min: (1.137005 0.0004682737 -0.0003907416)
    max: (1.137005 0.0004682737 -0.0003907416)

fieldMinMax MinMaxT:region0 write:
    min(mag(U)) = 0 in cell 31649 at location (0.9373242 0.08596811 -0.05038675) on processor 0
    max(mag(U)) = 1.145908 in cell 30070 at location (0.98 0.003986154 -0.004001051) on processor 0

volFieldValue volAvgFluid write:
    volAverage(region0) of U = (0.575289 -9.489712e-05 -6.26498e-05)

Time = 1999

smoothSolver:  Solving for Ux, Initial residual = 4.344677e-09, Final residual = 4.344677e-09, No Iterations 0
smoothSolver:  Solving for Uy, Initial residual = 4.480017e-08, Final residual = 7.319221e-09, No Iterations 2
smoothSolver:  Solving for Uz, Initial residual = 4.10137e-08, Final residual = 5.382328e-09, No Iterations 2
DICPCG:  Solving for p, Initial residual = 9.777993e-08, Final residual = 9.777993e-08, No Iterations 0
DICPCG:  Solving for p, Initial residual = 9.777993e-08, Final residual = 9.777993e-08, No Iterations 0
DICPCG:  Solving for p, Initial residual = 9.777993e-08, Final residual = 9.777993e-08, No Iterations 0
time step continuity errors : sum local = 2.011834e-06, global = 6.284592e-08, cumulative = -0.000387455
ExecutionTime = 178.41 s  ClockTime = 178 s

probesFluid : p
    avg: 100044.6
    min: 100044.6
    max: 100044.6

probesFluid : U
    avg: (1.137005 0.0004682737 -0.0003907416)
    min: (1.137005 0.0004682737 -0.0003907416)
    max: (1.137005 0.0004682737 -0.0003907416)

fieldMinMax MinMaxT:region0 write:
    min(mag(U)) = 0 in cell 31649 at location (0.9373242 0.08596811 -0.05038675) on processor 0
    max(mag(U)) = 1.145908 in cell 30070 at location (0.98 0.003986154 -0.004001051) on processor 0

volFieldValue volAvgFluid write:
    volAverage(region0) of U = (0.575289 -9.489712e-05 -6.26498e-05)

Time = 2000

smoothSolver:  Solving for Ux, Initial residual = 4.709214e-09, Final residual = 4.709214e-09, No Iterations 0
smoothSolver:  Solving for Uy, Initial residual = 4.847136e-08, Final residual = 7.808612e-09, No Iterations 2
smoothSolver:  Solving for Uz, Initial residual = 4.448061e-08, Final residual = 5.778456e-09, No Iterations 2
DICPCG:  Solving for p, Initial residual = 9.759428e-08, Final residual = 9.759428e-08, No Iterations 0
DICPCG:  Solving for p, Initial residual = 9.759428e-08, Final residual = 9.759428e-08, No Iterations 0
DICPCG:  Solving for p, Initial residual = 9.759428e-08, Final residual = 9.759428e-08, No Iterations 0
time step continuity errors : sum local = 2.008006e-06, global = 4.99648e-08, cumulative = -0.000387405
ExecutionTime = 178.57 s  ClockTime = 178 s

probesFluid : p
    avg: 100044.6
    min: 100044.6
    max: 100044.6

probesFluid : U
    avg: (1.137005 0.0004682737 -0.0003907416)
    min: (1.137005 0.0004682737 -0.0003907416)
    max: (1.137005 0.0004682737 -0.0003907416)

surfaceFieldValue MassFlowRate_inlet write:
    sum(inlet) of phi = -0.01797327

surfaceFieldValue MassFlowRate_outlet write:
    sum(outlet) of phi = 0.01797327

surfaceFieldValue inletAve_Values write:
    average(inlet) of U = (0.521549 0.0008168667 0.00206309)
    average(inlet) of p = 100090

surfaceFieldValue outletAve_Values write:
    average(outlet) of U = (0.5210292 -0.001625379 -0.0007278094)
    average(outlet) of p = 100000

fieldMinMax MinMaxT:region0 write:
    min(mag(U)) = 0 in cell 31649 at location (0.9373242 0.08596811 -0.05038675) on processor 0
    max(mag(U)) = 1.145908 in cell 30070 at location (0.98 0.003986154 -0.004001051) on processor 0

volFieldValue volAvgFluid write:
    volAverage(region0) of U = (0.575289 -9.489711e-05 -6.26498e-05)

End

Finalising parallel run
