/*---------------------------------------------------------------------------*\
| =========                 |                                                 |
| \\      /  F ield         | OpenFOAM: The Open Source CFD Toolbox           |
|  \\    /   O peration     | Version:  2206                                  |
|   \\  /    A nd           | Website:  www.openfoam.com                      |
|    \\/     M anipulation  |                                                 |
\*---------------------------------------------------------------------------*/
Build  : _8993af73-20221106 OPENFOAM=2206 patch=221104 version=2206
Arch   : "LSB;label=32;scalar=64"
Exec   : simpleFoam -parallel
Date   : Jul 11 2023
Time   : 11:46:10
Host   : PC
PID    : 12009
I/O    : uncollated
Case   : /home/daksh-pc/Openfoam2206-PC-linux/DA_BASE_CASES/simpleFoam_Basic
nProcs : 4
Hosts  :
(
    (PC 4)
)
Pstream initialized with:
    floatTransfer      : 0
    nProcsSimpleSum    : 0
    commsType          : nonBlocking
    polling iterations : 0
trapFpe: Floating point exception trapping enabled (FOAM_SIGFPE).
fileModificationChecking : Monitoring run-time modified files using timeStampMaster (fileModificationSkew 5, maxFileModificationPolls 20)
allowSystemOperations : Allowing user-supplied system call operations

// * * * * * * * * * * * * * * * * * * * * * * * * * * * * * * * * * * * * * //
Create time

Create mesh for time = 0


SIMPLE: no convergence criteria found. Calculations will run for 2000 steps.

Reading field p

Reading field U

Reading/calculating face flux field phi

Selecting incompressible transport model Newtonian
Selecting turbulence model type laminar
Selecting laminar stress model Stokes
No MRF models present

Creating finite volume options from "constant/fvOptions"

No finite volume options present

Starting time loop

surfaceFieldValue MassFlowRate_inlet:
    operation     = sum


surfaceFieldValue MassFlowRate_outlet:
    operation     = sum


surfaceFieldValue inletAve_Values:
    operation     = average


surfaceFieldValue outletAve_Values:
    operation     = average


multiRegion MinMaxT:
    Spawned additional object(s):
        MinMaxT:region0

Time = 1

smoothSolver:  Solving for Ux, Initial residual = 1, Final residual = 0.07234267, No Iterations 3
smoothSolver:  Solving for Uy, Initial residual = 1, Final residual = 0.0648885, No Iterations 3
smoothSolver:  Solving for Uz, Initial residual = 1, Final residual = 0.06369194, No Iterations 3
DICPCG:  Solving for p, Initial residual = 1, Final residual = 0.009688403, No Iterations 155
DICPCG:  Solving for p, Initial residual = 0.2417481, Final residual = 0.002145572, No Iterations 12
DICPCG:  Solving for p, Initial residual = 0.0250417, Final residual = 0.0002461072, No Iterations 144
time step continuity errors : sum local = 0.0007015164, global = -8.138427e-06, cumulative = -8.138427e-06
ExecutionTime = 0.61 s  ClockTime = 1 s

probesFluid : p
    avg: 100015.7
    min: 100015.7
    max: 100015.7

probesFluid : U
    avg: (0.5580363 0.0005434213 5.323539e-05)
    min: (0.5580363 0.0005434213 5.323539e-05)
    max: (0.5580363 0.0005434213 5.323539e-05)

fieldMinMax MinMaxT:region0 write:
    min(mag(U)) = 0 in cell 31649 at location (0.9373242 0.08596811 -0.05038675) on processor 0
    max(mag(U)) = 0.5678441 in cell 17496 at location (0.536 -0.02401385 0.02399895) on processor 1

volFieldValue volAvgFluid write:
    volAverage(region0) of U = (0.4858809 8.264416e-06 -2.726345e-07)

Time = 2

smoothSolver:  Solving for Ux, Initial residual = 0.1292576, Final residual = 0.009464344, No Iterations 6
smoothSolver:  Solving for Uy, Initial residual = 0.6142053, Final residual = 0.04694254, No Iterations 3
smoothSolver:  Solving for Uz, Initial residual = 0.6152398, Final residual = 0.04725017, No Iterations 3
DICPCG:  Solving for p, Initial residual = 0.1724161, Final residual = 0.00146606, No Iterations 153
DICPCG:  Solving for p, Initial residual = 0.1283839, Final residual = 0.00111206, No Iterations 12
DICPCG:  Solving for p, Initial residual = 0.0141993, Final residual = 0.0001376194, No Iterations 144
time step continuity errors : sum local = 0.0005647108, global = -6.685194e-06, cumulative = -1.482362e-05
ExecutionTime = 0.88 s  ClockTime = 1 s

probesFluid : p
    avg: 100028.9
    min: 100028.9
    max: 100028.9

probesFluid : U
    avg: (0.6436263 0.0008491532 -0.000328898)
    min: (0.6436263 0.0008491532 -0.000328898)
    max: (0.6436263 0.0008491532 -0.000328898)

fieldMinMax MinMaxT:region0 write:
    min(mag(U)) = 0 in cell 31649 at location (0.9373242 0.08596811 -0.05038675) on processor 0
    max(mag(U)) = 0.6556076 in cell 17498 at location (0.536 -0.008013848 0.00799895) on processor 1

volFieldValue volAvgFluid write:
    volAverage(region0) of U = (0.4882598 2.752387e-05 9.096809e-06)

Time = 3

smoothSolver:  Solving for Ux, Initial residual = 0.05616536, Final residual = 0.00490819, No Iterations 7
smoothSolver:  Solving for Uy, Initial residual = 0.4360053, Final residual = 0.0361926, No Iterations 5
smoothSolver:  Solving for Uz, Initial residual = 0.4405903, Final residual = 0.03689846, No Iterations 5
DICPCG:  Solving for p, Initial residual = 0.1327582, Final residual = 0.001183081, No Iterations 149
DICPCG:  Solving for p, Initial residual = 0.05205806, Final residual = 0.0004688821, No Iterations 12
DICPCG:  Solving for p, Initial residual = 0.006186993, Final residual = 6.012503e-05, No Iterations 143
time step continuity errors : sum local = 0.0002701739, global = -2.763913e-06, cumulative = -1.758753e-05
ExecutionTime = 1.16 s  ClockTime = 2 s

probesFluid : p
    avg: 100035.3
    min: 100035.3
    max: 100035.3

probesFluid : U
    avg: (0.7288718 0.0009094785 -0.0007157791)
    min: (0.7288718 0.0009094785 -0.0007157791)
    max: (0.7288718 0.0009094785 -0.0007157791)

fieldMinMax MinMaxT:region0 write:
    min(mag(U)) = 0 in cell 31649 at location (0.9373242 0.08596811 -0.05038675) on processor 0
    max(mag(U)) = 0.7395544 in cell 17498 at location (0.536 -0.008013848 0.00799895) on processor 1

volFieldValue volAvgFluid write:
    volAverage(region0) of U = (0.4952982 2.698288e-05 7.05929e-07)

Time = 4

smoothSolver:  Solving for Ux, Initial residual = 0.0313774, Final residual = 0.002584251, No Iterations 8
smoothSolver:  Solving for Uy, Initial residual = 0.2767559, Final residual = 0.02670125, No Iterations 6
smoothSolver:  Solving for Uz, Initial residual = 0.2801744, Final residual = 0.02748132, No Iterations 6
DICPCG:  Solving for p, Initial residual = 0.1263818, Final residual = 0.001214282, No Iterations 145
DICPCG:  Solving for p, Initial residual = 0.02725728, Final residual = 0.0002591342, No Iterations 16
DICPCG:  Solving for p, Initial residual = 0.004668375, Final residual = 4.469145e-05, No Iterations 76
time step continuity errors : sum local = 0.0002086684, global = 3.856986e-06, cumulative = -1.373055e-05
ExecutionTime = 1.4 s  ClockTime = 2 s

probesFluid : p
    avg: 100036.3
    min: 100036.3
    max: 100036.3

probesFluid : U
    avg: (0.7977206 0.0007302226 -0.0008751108)
    min: (0.7977206 0.0007302226 -0.0008751108)
    max: (0.7977206 0.0007302226 -0.0008751108)

fieldMinMax MinMaxT:region0 write:
    min(mag(U)) = 0 in cell 31649 at location (0.9373242 0.08596811 -0.05038675) on processor 0
    max(mag(U)) = 0.8065998 in cell 42941 at location (-0.776 -0.008013848 0.00799895) on processor 2

volFieldValue volAvgFluid write:
    volAverage(region0) of U = (0.5007852 7.214492e-07 -3.560555e-05)

Time = 5

smoothSolver:  Solving for Ux, Initial residual = 0.02015812, Final residual = 0.001899645, No Iterations 8
smoothSolver:  Solving for Uy, Initial residual = 0.2109414, Final residual = 0.01881157, No Iterations 6
smoothSolver:  Solving for Uz, Initial residual = 0.2127128, Final residual = 0.01956164, No Iterations 6
DICPCG:  Solving for p, Initial residual = 0.1211636, Final residual = 0.001211277, No Iterations 108
DICPCG:  Solving for p, Initial residual = 0.02863813, Final residual = 0.0002606825, No Iterations 32
DICPCG:  Solving for p, Initial residual = 0.00506851, Final residual = 4.626082e-05, No Iterations 132
time step continuity errors : sum local = 0.0002306169, global = -2.810107e-06, cumulative = -1.654065e-05
ExecutionTime = 1.66 s  ClockTime = 2 s

probesFluid : p
    avg: 100035.1
    min: 100035.1
    max: 100035.1

probesFluid : U
    avg: (0.845158 0.0003691958 -0.0008940562)
    min: (0.845158 0.0003691958 -0.0008940562)
    max: (0.845158 0.0003691958 -0.0008940562)

surfaceFieldValue MassFlowRate_inlet write:
    total faces   = 5224
    total area    = 0.03140448

    sum(inlet) of phi = -0.01570224

surfaceFieldValue MassFlowRate_outlet write:
    total faces   = 5208
    total area    = 0.03140578

    sum(outlet) of phi = 0.01570206

surfaceFieldValue inletAve_Values write:
    total faces   = 5224
    total area    = 0.03140448

    average(inlet) of U = (0.5 0 0)
    average(inlet) of p = 100082.1

surfaceFieldValue outletAve_Values write:
    total faces   = 5208
    total area    = 0.03140578

    average(outlet) of U = (0.470945 -3.367842e-05 -0.0001803608)
    average(outlet) of p = 100000

fieldMinMax MinMaxT:region0 write:
    min(mag(U)) = 0 in cell 31649 at location (0.9373242 0.08596811 -0.05038675) on processor 0
    max(mag(U)) = 0.8554569 in cell 42942 at location (-0.792 -0.008013848 0.00799895) on processor 2

volFieldValue volAvgFluid write:
    volAverage(region0) of U = (0.5033187 -2.144148e-05 -6.901212e-05)

Time = 6

smoothSolver:  Solving for Ux, Initial residual = 0.01452384, Final residual = 0.00112187, No Iterations 9
smoothSolver:  Solving for Uy, Initial residual = 0.1865958, Final residual = 0.01474772, No Iterations 5
smoothSolver:  Solving for Uz, Initial residual = 0.1885036, Final residual = 0.01548338, No Iterations 5
DICPCG:  Solving for p, Initial residual = 0.1117086, Final residual = 0.001019454, No Iterations 147
DICPCG:  Solving for p, Initial residual = 0.02531676, Final residual = 0.0002402988, No Iterations 13
DICPCG:  Solving for p, Initial residual = 0.004345411, Final residual = 3.860801e-05, No Iterations 144
time step continuity errors : sum local = 0.0002107275, global = 1.449161e-06, cumulative = -1.509149e-05
ExecutionTime = 1.93 s  ClockTime = 2 s

probesFluid : p
    avg: 100033.8
    min: 100033.8
    max: 100033.8

probesFluid : U
    avg: (0.877038 -3.120709e-05 -0.0008473557)
    min: (0.877038 -3.120709e-05 -0.0008473557)
    max: (0.877038 -3.120709e-05 -0.0008473557)

fieldMinMax MinMaxT:region0 write:
    min(mag(U)) = 0 in cell 31649 at location (0.9373242 0.08596811 -0.05038675) on processor 0
    max(mag(U)) = 0.8879384 in cell 42942 at location (-0.792 -0.008013848 0.00799895) on processor 2

volFieldValue volAvgFluid write:
    volAverage(region0) of U = (0.5037008 -2.518595e-05 -8.506357e-05)

Time = 7

smoothSolver:  Solving for Ux, Initial residual = 0.01094967, Final residual = 0.0009351715, No Iterations 9
smoothSolver:  Solving for Uy, Initial residual = 0.1617388, Final residual = 0.01608908, No Iterations 3
smoothSolver:  Solving for Uz, Initial residual = 0.1636561, Final residual = 0.01243056, No Iterations 4
DICPCG:  Solving for p, Initial residual = 0.09927507, Final residual = 0.0009623455, No Iterations 47
DICPCG:  Solving for p, Initial residual = 0.01797939, Final residual = 0.0001755141, No Iterations 122
DICPCG:  Solving for p, Initial residual = 0.004063462, Final residual = 3.898576e-05, No Iterations 37
time step continuity errors : sum local = 0.0002352631, global = 3.491949e-05, cumulative = 1.982799e-05
ExecutionTime = 2.17 s  ClockTime = 3 s

probesFluid : p
    avg: 100033.2
    min: 100033.2
    max: 100033.2

probesFluid : U
    avg: (0.8983073 -0.0003651431 -0.0008382783)
    min: (0.8983073 -0.0003651431 -0.0008382783)
    max: (0.8983073 -0.0003651431 -0.0008382783)

fieldMinMax MinMaxT:region0 write:
    min(mag(U)) = 0 in cell 31649 at location (0.9373242 0.08596811 -0.05038675) on processor 0
    max(mag(U)) = 0.9090474 in cell 42942 at location (-0.792 -0.008013848 0.00799895) on processor 2

volFieldValue volAvgFluid write:
    volAverage(region0) of U = (0.503072 -1.701635e-05 -8.778607e-05)

Time = 8

smoothSolver:  Solving for Ux, Initial residual = 0.00849337, Final residual = 0.0008065725, No Iterations 9
smoothSolver:  Solving for Uy, Initial residual = 0.1370526, Final residual = 0.0125824, No Iterations 3
smoothSolver:  Solving for Uz, Initial residual = 0.1379865, Final residual = 0.01272764, No Iterations 3
DICPCG:  Solving for p, Initial residual = 0.08675161, Final residual = 0.0008088605, No Iterations 15
DICPCG:  Solving for p, Initial residual = 0.01427645, Final residual = 0.0001206442, No Iterations 140
DICPCG:  Solving for p, Initial residual = 0.002873567, Final residual = 2.663692e-05, No Iterations 14
time step continuity errors : sum local = 0.0001770326, global = 1.877535e-06, cumulative = 2.170553e-05
ExecutionTime = 2.37 s  ClockTime = 3 s

probesFluid : p
    avg: 100033.4
    min: 100033.4
    max: 100033.4

probesFluid : U
    avg: (0.9140169 -0.0007019474 -0.0009008578)
    min: (0.9140169 -0.0007019474 -0.0009008578)
    max: (0.9140169 -0.0007019474 -0.0009008578)

fieldMinMax MinMaxT:region0 write:
    min(mag(U)) = 0 in cell 31649 at location (0.9373242 0.08596811 -0.05038675) on processor 0
    max(mag(U)) = 0.926074 in cell 18990 at location (0.36 -0.008013848 -0.00800105) on processor 1

volFieldValue volAvgFluid write:
    volAverage(region0) of U = (0.5022811 -7.360301e-06 -8.638417e-05)

Time = 9

smoothSolver:  Solving for Ux, Initial residual = 0.00687498, Final residual = 0.000547138, No Iterations 10
smoothSolver:  Solving for Uy, Initial residual = 0.1196102, Final residual = 0.01101635, No Iterations 3
smoothSolver:  Solving for Uz, Initial residual = 0.1204288, Final residual = 0.01115947, No Iterations 3
DICPCG:  Solving for p, Initial residual = 0.07544872, Final residual = 0.0006980902, No Iterations 68
DICPCG:  Solving for p, Initial residual = 0.01203076, Final residual = 0.0001198104, No Iterations 136
DICPCG:  Solving for p, Initial residual = 0.002929357, Final residual = 2.817121e-05, No Iterations 53
time step continuity errors : sum local = 0.0002044358, global = -2.25333e-05, cumulative = -8.277737e-07
ExecutionTime = 2.64 s  ClockTime = 3 s

probesFluid : p
    avg: 100034.2
    min: 100034.2
    max: 100034.2

probesFluid : U
    avg: (0.9272454 -0.0009997677 -0.001024794)
    min: (0.9272454 -0.0009997677 -0.001024794)
    max: (0.9272454 -0.0009997677 -0.001024794)

fieldMinMax MinMaxT:region0 write:
    min(mag(U)) = 0 in cell 31649 at location (0.9373242 0.08596811 -0.05038675) on processor 0
    max(mag(U)) = 0.9401452 in cell 18990 at location (0.36 -0.008013848 -0.00800105) on processor 1

volFieldValue volAvgFluid write:
    volAverage(region0) of U = (0.5017209 2.18603e-07 -8.601066e-05)

Time = 10

smoothSolver:  Solving for Ux, Initial residual = 0.005782953, Final residual = 0.0004645055, No Iterations 10
smoothSolver:  Solving for Uy, Initial residual = 0.108084, Final residual = 0.01001276, No Iterations 3
smoothSolver:  Solving for Uz, Initial residual = 0.1089569, Final residual = 0.01016691, No Iterations 3
DICPCG:  Solving for p, Initial residual = 0.06574704, Final residual = 0.0006516534, No Iterations 136
DICPCG:  Solving for p, Initial residual = 0.01037099, Final residual = 9.433144e-05, No Iterations 17
DICPCG:  Solving for p, Initial residual = 0.001796171, Final residual = 1.782852e-05, No Iterations 137
time step continuity errors : sum local = 0.0001397531, global = -8.759031e-07, cumulative = -1.703677e-06
ExecutionTime = 2.92 s  ClockTime = 3 s

probesFluid : p
    avg: 100035.1
    min: 100035.1
    max: 100035.1

probesFluid : U
    avg: (0.9388878 -0.001234697 -0.001174319)
    min: (0.9388878 -0.001234697 -0.001174319)
    max: (0.9388878 -0.001234697 -0.001174319)

surfaceFieldValue MassFlowRate_inlet write:
    sum(inlet) of phi = -0.01570224

surfaceFieldValue MassFlowRate_outlet write:
    sum(outlet) of phi = 0.01570218

surfaceFieldValue inletAve_Values write:
    average(inlet) of U = (0.5 0 0)
    average(inlet) of p = 100081.3

surfaceFieldValue outletAve_Values write:
    average(outlet) of U = (0.465549 0.000182054 -0.0004182859)
    average(outlet) of p = 100000

fieldMinMax MinMaxT:region0 write:
    min(mag(U)) = 0 in cell 31649 at location (0.9373242 0.08596811 -0.05038675) on processor 0
    max(mag(U)) = 0.9519642 in cell 18990 at location (0.36 -0.008013848 -0.00800105) on processor 1

volFieldValue volAvgFluid write:
    volAverage(region0) of U = (0.501547 4.036223e-06 -8.920288e-05)

Time = 11

smoothSolver:  Solving for Ux, Initial residual = 0.004976386, Final residual = 0.0004895962, No Iterations 9
smoothSolver:  Solving for Uy, Initial residual = 0.09946681, Final residual = 0.00919367, No Iterations 3
smoothSolver:  Solving for Uz, Initial residual = 0.1004165, Final residual = 0.009360029, No Iterations 3
DICPCG:  Solving for p, Initial residual = 0.05764092, Final residual = 0.0005381659, No Iterations 135
DICPCG:  Solving for p, Initial residual = 0.009009391, Final residual = 8.661785e-05, No Iterations 23
DICPCG:  Solving for p, Initial residual = 0.001568719, Final residual = 1.560547e-05, No Iterations 132
time step continuity errors : sum local = 0.0001307203, global = -8.487577e-07, cumulative = -2.552434e-06
ExecutionTime = 3.18 s  ClockTime = 4 s

probesFluid : p
    avg: 100035.9
    min: 100035.9
    max: 100035.9

probesFluid : U
    avg: (0.9489656 -0.001401796 -0.001305509)
    min: (0.9489656 -0.001401796 -0.001305509)
    max: (0.9489656 -0.001401796 -0.001305509)

fieldMinMax MinMaxT:region0 write:
    min(mag(U)) = 0 in cell 31649 at location (0.9373242 0.08596811 -0.05038675) on processor 0
    max(mag(U)) = 0.9617447 in cell 18990 at location (0.36 -0.008013848 -0.00800105) on processor 1

volFieldValue volAvgFluid write:
    volAverage(region0) of U = (0.5016447 4.624694e-06 -9.415203e-05)

Time = 12

smoothSolver:  Solving for Ux, Initial residual = 0.004333983, Final residual = 0.0004056808, No Iterations 9
smoothSolver:  Solving for Uy, Initial residual = 0.09217442, Final residual = 0.008463746, No Iterations 3
smoothSolver:  Solving for Uz, Initial residual = 0.09314387, Final residual = 0.008630011, No Iterations 3
DICPCG:  Solving for p, Initial residual = 0.05091794, Final residual = 0.0004939464, No Iterations 70
DICPCG:  Solving for p, Initial residual = 0.007920331, Final residual = 6.548305e-05, No Iterations 136
DICPCG:  Solving for p, Initial residual = 0.002012679, Final residual = 1.967645e-05, No Iterations 18
time step continuity errors : sum local = 0.0001746211, global = -4.059072e-05, cumulative = -4.314316e-05
ExecutionTime = 3.39 s  ClockTime = 4 s

probesFluid : p
    avg: 100036.5
    min: 100036.5
    max: 100036.5

probesFluid : U
    avg: (0.9575423 -0.001492779 -0.00138963)
    min: (0.9575423 -0.001492779 -0.00138963)
    max: (0.9575423 -0.001492779 -0.00138963)

fieldMinMax MinMaxT:region0 write:
    min(mag(U)) = 0 in cell 31649 at location (0.9373242 0.08596811 -0.05038675) on processor 0
    max(mag(U)) = 0.9696165 in cell 18990 at location (0.36 -0.008013848 -0.00800105) on processor 1

volFieldValue volAvgFluid write:
    volAverage(region0) of U = (0.5018175 3.072799e-06 -0.0001007231)

Time = 13

smoothSolver:  Solving for Ux, Initial residual = 0.003795836, Final residual = 0.0003376795, No Iterations 9
smoothSolver:  Solving for Uy, Initial residual = 0.08571853, Final residual = 0.007820132, No Iterations 3
smoothSolver:  Solving for Uz, Initial residual = 0.08666249, Final residual = 0.007978572, No Iterations 3
DICPCG:  Solving for p, Initial residual = 0.04528102, Final residual = 0.0004309546, No Iterations 69
DICPCG:  Solving for p, Initial residual = 0.006943197, Final residual = 6.656065e-05, No Iterations 135
DICPCG:  Solving for p, Initial residual = 0.001659323, Final residual = 1.612091e-05, No Iterations 15
time step continuity errors : sum local = 0.0001505387, global = -3.186699e-05, cumulative = -7.501015e-05
ExecutionTime = 3.61 s  ClockTime = 4 s

probesFluid : p
    avg: 100037
    min: 100037
    max: 100037

probesFluid : U
    avg: (0.9645957 -0.001516715 -0.001420912)
    min: (0.9645957 -0.001516715 -0.001420912)
    max: (0.9645957 -0.001516715 -0.001420912)

fieldMinMax MinMaxT:region0 write:
    min(mag(U)) = 0 in cell 31649 at location (0.9373242 0.08596811 -0.05038675) on processor 0
    max(mag(U)) = 0.9757656 in cell 18990 at location (0.36 -0.008013848 -0.00800105) on processor 1

volFieldValue volAvgFluid write:
    volAverage(region0) of U = (0.5020017 8.824711e-07 -0.000107593)

Time = 14

smoothSolver:  Solving for Ux, Initial residual = 0.003350662, Final residual = 0.000283541, No Iterations 9
smoothSolver:  Solving for Uy, Initial residual = 0.07978253, Final residual = 0.007247351, No Iterations 3
smoothSolver:  Solving for Uz, Initial residual = 0.08069301, Final residual = 0.007397853, No Iterations 3
DICPCG:  Solving for p, Initial residual = 0.04048941, Final residual = 0.0003908094, No Iterations 63
DICPCG:  Solving for p, Initial residual = 0.006124688, Final residual = 5.881817e-05, No Iterations 139
DICPCG:  Solving for p, Initial residual = 0.001390682, Final residual = 1.327539e-05, No Iterations 14
time step continuity errors : sum local = 0.0001296988, global = -2.367898e-05, cumulative = -9.868913e-05
ExecutionTime = 3.82 s  ClockTime = 4 s

probesFluid : p
    avg: 100037.4
    min: 100037.4
    max: 100037.4

probesFluid : U
    avg: (0.9702469 -0.001490472 -0.001410499)
    min: (0.9702469 -0.001490472 -0.001410499)
    max: (0.9702469 -0.001490472 -0.001410499)

fieldMinMax MinMaxT:region0 write:
    min(mag(U)) = 0 in cell 31649 at location (0.9373242 0.08596811 -0.05038675) on processor 0
    max(mag(U)) = 0.9804265 in cell 18990 at location (0.36 -0.008013848 -0.00800105) on processor 1

volFieldValue volAvgFluid write:
    volAverage(region0) of U = (0.5021553 -1.024881e-06 -0.0001135043)

Time = 15

smoothSolver:  Solving for Ux, Initial residual = 0.002983777, Final residual = 0.0002407314, No Iterations 9
smoothSolver:  Solving for Uy, Initial residual = 0.07433642, Final residual = 0.006733181, No Iterations 3
smoothSolver:  Solving for Uz, Initial residual = 0.07520418, Final residual = 0.006875357, No Iterations 3
DICPCG:  Solving for p, Initial residual = 0.03637409, Final residual = 0.0003460631, No Iterations 61
DICPCG:  Solving for p, Initial residual = 0.005442256, Final residual = 4.78446e-05, No Iterations 140
DICPCG:  Solving for p, Initial residual = 0.001179019, Final residual = 1.052292e-05, No Iterations 13
time step continuity errors : sum local = 0.0001070479, global = -1.783589e-05, cumulative = -0.000116525
ExecutionTime = 4.04 s  ClockTime = 4 s

probesFluid : p
    avg: 100037.6
    min: 100037.6
    max: 100037.6

probesFluid : U
    avg: (0.9747009 -0.001426314 -0.001369562)
    min: (0.9747009 -0.001426314 -0.001369562)
    max: (0.9747009 -0.001426314 -0.001369562)

surfaceFieldValue MassFlowRate_inlet write:
    sum(inlet) of phi = -0.01570224

surfaceFieldValue MassFlowRate_outlet write:
    sum(outlet) of phi = 0.01570112

surfaceFieldValue inletAve_Values write:
    average(inlet) of U = (0.5 0 0)
    average(inlet) of p = 100086.9

surfaceFieldValue outletAve_Values write:
    average(outlet) of U = (0.4632191 0.0004040348 -0.0006536506)
    average(outlet) of p = 100000

fieldMinMax MinMaxT:region0 write:
    min(mag(U)) = 0 in cell 31649 at location (0.9373242 0.08596811 -0.05038675) on processor 0
    max(mag(U)) = 0.9838971 in cell 18990 at location (0.36 -0.008013848 -0.00800105) on processor 1

volFieldValue volAvgFluid write:
    volAverage(region0) of U = (0.5022684 -2.068522e-06 -0.0001183784)

Time = 16

smoothSolver:  Solving for Ux, Initial residual = 0.002682052, Final residual = 0.0002606299, No Iterations 8
smoothSolver:  Solving for Uy, Initial residual = 0.06930331, Final residual = 0.006258114, No Iterations 3
smoothSolver:  Solving for Uz, Initial residual = 0.07012731, Final residual = 0.00639418, No Iterations 3
DICPCG:  Solving for p, Initial residual = 0.03280335, Final residual = 0.0003229513, No Iterations 11
DICPCG:  Solving for p, Initial residual = 0.004834319, Final residual = 4.706868e-05, No Iterations 137
DICPCG:  Solving for p, Initial residual = 0.001147186, Final residual = 1.034328e-05, No Iterations 14
time step continuity errors : sum local = 0.0001091106, global = -9.063505e-06, cumulative = -0.0001255885
ExecutionTime = 4.22 s  ClockTime = 5 s

probesFluid : p
    avg: 100037.9
    min: 100037.9
    max: 100037.9

probesFluid : U
    avg: (0.9781269 -0.001340137 -0.001313301)
    min: (0.9781269 -0.001340137 -0.001313301)
    max: (0.9781269 -0.001340137 -0.001313301)

fieldMinMax MinMaxT:region0 write:
    min(mag(U)) = 0 in cell 31649 at location (0.9373242 0.08596811 -0.05038675) on processor 0
    max(mag(U)) = 0.9864201 in cell 18990 at location (0.36 -0.008013848 -0.00800105) on processor 1

volFieldValue volAvgFluid write:
    volAverage(region0) of U = (0.5023516 -2.674684e-06 -0.0001225015)

Time = 17

smoothSolver:  Solving for Ux, Initial residual = 0.002433932, Final residual = 0.0002267792, No Iterations 8
smoothSolver:  Solving for Uy, Initial residual = 0.06460601, Final residual = 0.005788628, No Iterations 3
smoothSolver:  Solving for Uz, Initial residual = 0.06538243, Final residual = 0.00591908, No Iterations 3
DICPCG:  Solving for p, Initial residual = 0.02968913, Final residual = 0.0002721064, No Iterations 10
DICPCG:  Solving for p, Initial residual = 0.00434404, Final residual = 3.693991e-05, No Iterations 139
DICPCG:  Solving for p, Initial residual = 0.0009792954, Final residual = 8.921969e-06, No Iterations 13
time step continuity errors : sum local = 9.725891e-05, global = -7.205653e-06, cumulative = -0.0001327942
ExecutionTime = 4.41 s  ClockTime = 5 s

probesFluid : p
    avg: 100038
    min: 100038
    max: 100038

probesFluid : U
    avg: (0.9808267 -0.001242057 -0.001248435)
    min: (0.9808267 -0.001242057 -0.001248435)
    max: (0.9808267 -0.001242057 -0.001248435)

fieldMinMax MinMaxT:region0 write:
    min(mag(U)) = 0 in cell 31649 at location (0.9373242 0.08596811 -0.05038675) on processor 0
    max(mag(U)) = 0.9883231 in cell 18385 at location (0.376 0.007986152 -0.00800105) on processor 1

volFieldValue volAvgFluid write:
    volAverage(region0) of U = (0.5024057 -2.889707e-06 -0.0001256678)

Time = 18

smoothSolver:  Solving for Ux, Initial residual = 0.002224918, Final residual = 0.0001989842, No Iterations 8
smoothSolver:  Solving for Uy, Initial residual = 0.06024142, Final residual = 0.005341063, No Iterations 3
smoothSolver:  Solving for Uz, Initial residual = 0.0609737, Final residual = 0.005465892, No Iterations 3
DICPCG:  Solving for p, Initial residual = 0.02695695, Final residual = 0.0002539059, No Iterations 9
DICPCG:  Solving for p, Initial residual = 0.003913694, Final residual = 3.736283e-05, No Iterations 139
DICPCG:  Solving for p, Initial residual = 0.0008563658, Final residual = 7.61238e-06, No Iterations 13
time step continuity errors : sum local = 8.549274e-05, global = -5.866147e-06, cumulative = -0.0001386603
ExecutionTime = 4.59 s  ClockTime = 5 s

probesFluid : p
    avg: 100038.2
    min: 100038.2
    max: 100038.2

probesFluid : U
    avg: (0.982973 -0.001137547 -0.001180462)
    min: (0.982973 -0.001137547 -0.001180462)
    max: (0.982973 -0.001137547 -0.001180462)

fieldMinMax MinMaxT:region0 write:
    min(mag(U)) = 0 in cell 31649 at location (0.9373242 0.08596811 -0.05038675) on processor 0
    max(mag(U)) = 0.9897642 in cell 18385 at location (0.376 0.007986152 -0.00800105) on processor 1

volFieldValue volAvgFluid write:
    volAverage(region0) of U = (0.5024426 -2.741775e-06 -0.0001282718)

Time = 19

smoothSolver:  Solving for Ux, Initial residual = 0.002044748, Final residual = 0.0001757693, No Iterations 8
smoothSolver:  Solving for Uy, Initial residual = 0.05619862, Final residual = 0.004924105, No Iterations 3
smoothSolver:  Solving for Uz, Initial residual = 0.05688882, Final residual = 0.005044082, No Iterations 3
DICPCG:  Solving for p, Initial residual = 0.02454739, Final residual = 0.0002431295, No Iterations 8
DICPCG:  Solving for p, Initial residual = 0.003535142, Final residual = 2.977558e-05, No Iterations 140
DICPCG:  Solving for p, Initial residual = 0.0007586856, Final residual = 7.46469e-06, No Iterations 12
time step continuity errors : sum local = 8.613846e-05, global = -4.770799e-06, cumulative = -0.0001434311
ExecutionTime = 4.79 s  ClockTime = 5 s

probesFluid : p
    avg: 100038.3
    min: 100038.3
    max: 100038.3

probesFluid : U
    avg: (0.9846988 -0.001031926 -0.001113811)
    min: (0.9846988 -0.001031926 -0.001113811)
    max: (0.9846988 -0.001031926 -0.001113811)

fieldMinMax MinMaxT:region0 write:
    min(mag(U)) = 0 in cell 31649 at location (0.9373242 0.08596811 -0.05038675) on processor 0
    max(mag(U)) = 0.9908614 in cell 18385 at location (0.376 0.007986152 -0.00800105) on processor 1

volFieldValue volAvgFluid write:
    volAverage(region0) of U = (0.5024708 -2.454446e-06 -0.0001304842)

Time = 20

smoothSolver:  Solving for Ux, Initial residual = 0.001886756, Final residual = 0.0001561735, No Iterations 8
smoothSolver:  Solving for Uy, Initial residual = 0.05245398, Final residual = 0.004540261, No Iterations 3
smoothSolver:  Solving for Uz, Initial residual = 0.05310452, Final residual = 0.004655647, No Iterations 3
DICPCG:  Solving for p, Initial residual = 0.02241224, Final residual = 0.0002099869, No Iterations 8
DICPCG:  Solving for p, Initial residual = 0.003200569, Final residual = 2.69943e-05, No Iterations 140
DICPCG:  Solving for p, Initial residual = 0.0006741677, Final residual = 6.737249e-06, No Iterations 12
time step continuity errors : sum local = 7.969009e-05, global = -4.294667e-06, cumulative = -0.0001477258
ExecutionTime = 4.96 s  ClockTime = 5 s

probesFluid : p
    avg: 100038.4
    min: 100038.4
    max: 100038.4

probesFluid : U
    avg: (0.9861021 -0.0009280262 -0.001049976)
    min: (0.9861021 -0.0009280262 -0.001049976)
    max: (0.9861021 -0.0009280262 -0.001049976)

surfaceFieldValue MassFlowRate_inlet write:
    sum(inlet) of phi = -0.01570224

surfaceFieldValue MassFlowRate_outlet write:
    sum(outlet) of phi = 0.01570197

surfaceFieldValue inletAve_Values write:
    average(inlet) of U = (0.5 0 0)
    average(inlet) of p = 100088.5

surfaceFieldValue outletAve_Values write:
    average(outlet) of U = (0.461559 0.0005822489 -0.0008737918)
    average(outlet) of p = 100000

fieldMinMax MinMaxT:region0 write:
    min(mag(U)) = 0 in cell 31649 at location (0.9373242 0.08596811 -0.05038675) on processor 0
    max(mag(U)) = 0.9917064 in cell 18385 at location (0.376 0.007986152 -0.00800105) on processor 1

volFieldValue volAvgFluid write:
    volAverage(region0) of U = (0.5024944 -2.20678e-06 -0.0001324302)

Time = 21

smoothSolver:  Solving for Ux, Initial residual = 0.001746338, Final residual = 0.0001396121, No Iterations 8
smoothSolver:  Solving for Uy, Initial residual = 0.0489853, Final residual = 0.004188672, No Iterations 3
smoothSolver:  Solving for Uz, Initial residual = 0.04959816, Final residual = 0.004299247, No Iterations 3
DICPCG:  Solving for p, Initial residual = 0.0205122, Final residual = 0.0001817741, No Iterations 8
DICPCG:  Solving for p, Initial residual = 0.002904977, Final residual = 2.492496e-05, No Iterations 140
DICPCG:  Solving for p, Initial residual = 0.0006013078, Final residual = 5.481289e-06, No Iterations 13
time step continuity errors : sum local = 6.631526e-05, global = -3.849854e-06, cumulative = -0.0001515756
ExecutionTime = 5.14 s  ClockTime = 6 s

probesFluid : p
    avg: 100038.5
    min: 100038.5
    max: 100038.5

probesFluid : U
    avg: (0.9872514 -0.0008275115 -0.0009896507)
    min: (0.9872514 -0.0008275115 -0.0009896507)
    max: (0.9872514 -0.0008275115 -0.0009896507)

fieldMinMax MinMaxT:region0 write:
    min(mag(U)) = 0 in cell 31649 at location (0.9373242 0.08596811 -0.05038675) on processor 0
    max(mag(U)) = 0.9923622 in cell 18385 at location (0.376 0.007986152 -0.00800105) on processor 1

volFieldValue volAvgFluid write:
    volAverage(region0) of U = (0.5025151 -2.047134e-06 -0.000134155)

Time = 22

smoothSolver:  Solving for Ux, Initial residual = 0.001620373, Final residual = 0.0001575, No Iterations 7
smoothSolver:  Solving for Uy, Initial residual = 0.04577594, Final residual = 0.003866961, No Iterations 3
smoothSolver:  Solving for Uz, Initial residual = 0.04635077, Final residual = 0.003972052, No Iterations 3
DICPCG:  Solving for p, Initial residual = 0.01881161, Final residual = 0.0001816736, No Iterations 7
DICPCG:  Solving for p, Initial residual = 0.002650065, Final residual = 2.215069e-05, No Iterations 140
DICPCG:  Solving for p, Initial residual = 0.0005371359, Final residual = 4.683641e-06, No Iterations 13
time step continuity errors : sum local = 5.784629e-05, global = -3.153428e-06, cumulative = -0.0001547291
ExecutionTime = 5.33 s  ClockTime = 6 s

probesFluid : p
    avg: 100038.5
    min: 100038.5
    max: 100038.5

probesFluid : U
    avg: (0.9881724 -0.000733596 -0.0009354929)
    min: (0.9881724 -0.000733596 -0.0009354929)
    max: (0.9881724 -0.000733596 -0.0009354929)

fieldMinMax MinMaxT:region0 write:
    min(mag(U)) = 0 in cell 31649 at location (0.9373242 0.08596811 -0.05038675) on processor 0
    max(mag(U)) = 0.9928612 in cell 18385 at location (0.376 0.007986152 -0.00800105) on processor 1

volFieldValue volAvgFluid write:
    volAverage(region0) of U = (0.5025362 -1.90292e-06 -0.000135652)

Time = 23

smoothSolver:  Solving for Ux, Initial residual = 0.00150842, Final residual = 0.0001435135, No Iterations 7
smoothSolver:  Solving for Uy, Initial residual = 0.04277514, Final residual = 0.003554905, No Iterations 3
smoothSolver:  Solving for Uz, Initial residual = 0.04331558, Final residual = 0.003652044, No Iterations 3
DICPCG:  Solving for p, Initial residual = 0.01728719, Final residual = 0.0001542533, No Iterations 7
DICPCG:  Solving for p, Initial residual = 0.00241429, Final residual = 2.398121e-05, No Iterations 139
DICPCG:  Solving for p, Initial residual = 0.0004821509, Final residual = 4.227323e-06, No Iterations 14
time step continuity errors : sum local = 5.320794e-05, global = -2.88636e-06, cumulative = -0.0001576154
ExecutionTime = 5.52 s  ClockTime = 6 s

probesFluid : p
    avg: 100038.6
    min: 100038.6
    max: 100038.6

probesFluid : U
    avg: (0.988932 -0.0006455586 -0.0008858368)
    min: (0.988932 -0.0006455586 -0.0008858368)
    max: (0.988932 -0.0006455586 -0.0008858368)

fieldMinMax MinMaxT:region0 write:
    min(mag(U)) = 0 in cell 31649 at location (0.9373242 0.08596811 -0.05038675) on processor 0
    max(mag(U)) = 0.9932503 in cell 18385 at location (0.376 0.007986152 -0.00800105) on processor 1

volFieldValue volAvgFluid write:
    volAverage(region0) of U = (0.5025522 -1.80966e-06 -0.0001369501)

Time = 24

smoothSolver:  Solving for Ux, Initial residual = 0.001406806, Final residual = 0.0001317186, No Iterations 7
smoothSolver:  Solving for Uy, Initial residual = 0.03998966, Final residual = 0.003267682, No Iterations 3
smoothSolver:  Solving for Uz, Initial residual = 0.0404965, Final residual = 0.003356169, No Iterations 3
DICPCG:  Solving for p, Initial residual = 0.01591515, Final residual = 0.0001359284, No Iterations 7
DICPCG:  Solving for p, Initial residual = 0.002204982, Final residual = 2.177719e-05, No Iterations 139
DICPCG:  Solving for p, Initial residual = 0.0004349753, Final residual = 4.184234e-06, No Iterations 14
time step continuity errors : sum local = 5.358964e-05, global = -2.575708e-06, cumulative = -0.0001601911
ExecutionTime = 5.72 s  ClockTime = 6 s

probesFluid : p
    avg: 100038.6
    min: 100038.6
    max: 100038.6

probesFluid : U
    avg: (0.9895602 -0.0005631655 -0.0008401491)
    min: (0.9895602 -0.0005631655 -0.0008401491)
    max: (0.9895602 -0.0005631655 -0.0008401491)

fieldMinMax MinMaxT:region0 write:
    min(mag(U)) = 0 in cell 31649 at location (0.9373242 0.08596811 -0.05038675) on processor 0
    max(mag(U)) = 0.9935537 in cell 18385 at location (0.376 0.007986152 -0.00800105) on processor 1

volFieldValue volAvgFluid write:
    volAverage(region0) of U = (0.5025645 -1.75109e-06 -0.0001380639)

Time = 25

smoothSolver:  Solving for Ux, Initial residual = 0.001314195, Final residual = 0.0001215516, No Iterations 7
smoothSolver:  Solving for Uy, Initial residual = 0.03740563, Final residual = 0.003009126, No Iterations 3
smoothSolver:  Solving for Uz, Initial residual = 0.03787987, Final residual = 0.003089173, No Iterations 3
DICPCG:  Solving for p, Initial residual = 0.01467636, Final residual = 0.000145769, No Iterations 6
DICPCG:  Solving for p, Initial residual = 0.002024953, Final residual = 1.817706e-05, No Iterations 140
DICPCG:  Solving for p, Initial residual = 0.0003956658, Final residual = 3.679116e-06, No Iterations 15
time step continuity errors : sum local = 4.788065e-05, global = -2.178297e-06, cumulative = -0.0001623694
ExecutionTime = 5.92 s  ClockTime = 6 s

probesFluid : p
    avg: 100038.7
    min: 100038.7
    max: 100038.7

probesFluid : U
    avg: (0.9900824 -0.0004858145 -0.0007979337)
    min: (0.9900824 -0.0004858145 -0.0007979337)
    max: (0.9900824 -0.0004858145 -0.0007979337)

surfaceFieldValue MassFlowRate_inlet write:
    sum(inlet) of phi = -0.01570224

surfaceFieldValue MassFlowRate_outlet write:
    sum(outlet) of phi = 0.0157021

surfaceFieldValue inletAve_Values write:
    average(inlet) of U = (0.5 0 0)
    average(inlet) of p = 100089.2

surfaceFieldValue outletAve_Values write:
    average(outlet) of U = (0.4603417 0.0006995944 -0.001057572)
    average(outlet) of p = 100000

fieldMinMax MinMaxT:region0 write:
    min(mag(U)) = 0 in cell 31649 at location (0.9373242 0.08596811 -0.05038675) on processor 0
    max(mag(U)) = 0.9937903 in cell 18385 at location (0.376 0.007986152 -0.00800105) on processor 1

volFieldValue volAvgFluid write:
    volAverage(region0) of U = (0.5025741 -1.711033e-06 -0.0001389936)

Time = 26

smoothSolver:  Solving for Ux, Initial residual = 0.001229282, Final residual = 0.000112625, No Iterations 7
smoothSolver:  Solving for Uy, Initial residual = 0.03500871, Final residual = 0.002777757, No Iterations 3
smoothSolver:  Solving for Uz, Initial residual = 0.03545174, Final residual = 0.002849866, No Iterations 3
DICPCG:  Solving for p, Initial residual = 0.01355479, Final residual = 0.0001325759, No Iterations 6
DICPCG:  Solving for p, Initial residual = 0.001856341, Final residual = 1.727883e-05, No Iterations 139
DICPCG:  Solving for p, Initial residual = 0.0003601004, Final residual = 3.521046e-06, No Iterations 20
time step continuity errors : sum local = 4.65046e-05, global = -1.799502e-06, cumulative = -0.0001641689
ExecutionTime = 6.12 s  ClockTime = 7 s

probesFluid : p
    avg: 100038.7
    min: 100038.7
    max: 100038.7

probesFluid : U
    avg: (0.9905187 -0.0004138707 -0.0007591195)
    min: (0.9905187 -0.0004138707 -0.0007591195)
    max: (0.9905187 -0.0004138707 -0.0007591195)

fieldMinMax MinMaxT:region0 write:
    min(mag(U)) = 0 in cell 31649 at location (0.9373242 0.08596811 -0.05038675) on processor 0
    max(mag(U)) = 0.9939748 in cell 18385 at location (0.376 0.007986152 -0.00800105) on processor 1

volFieldValue volAvgFluid write:
    volAverage(region0) of U = (0.5025819 -1.61855e-06 -0.0001396737)

Time = 27

smoothSolver:  Solving for Ux, Initial residual = 0.001151091, Final residual = 0.0001046911, No Iterations 7
smoothSolver:  Solving for Uy, Initial residual = 0.03278485, Final residual = 0.002570289, No Iterations 3
smoothSolver:  Solving for Uz, Initial residual = 0.03319748, Final residual = 0.002635287, No Iterations 3
DICPCG:  Solving for p, Initial residual = 0.01253672, Final residual = 0.0001208423, No Iterations 6
DICPCG:  Solving for p, Initial residual = 0.001704348, Final residual = 1.596762e-05, No Iterations 132
DICPCG:  Solving for p, Initial residual = 0.0003286458, Final residual = 2.862485e-06, No Iterations 24
time step continuity errors : sum local = 3.832499e-05, global = -3.040378e-06, cumulative = -0.0001672093
ExecutionTime = 6.31 s  ClockTime = 7 s

probesFluid : p
    avg: 100038.7
    min: 100038.7
    max: 100038.7

probesFluid : U
    avg: (0.9908856 -0.000346054 -0.000722728)
    min: (0.9908856 -0.000346054 -0.000722728)
    max: (0.9908856 -0.000346054 -0.000722728)

fieldMinMax MinMaxT:region0 write:
    min(mag(U)) = 0 in cell 31649 at location (0.9373242 0.08596811 -0.05038675) on processor 0
    max(mag(U)) = 0.9941273 in cell 16952 at location (0.392 0.007986152 0.00799895) on processor 1

volFieldValue volAvgFluid write:
    volAverage(region0) of U = (0.502588 -1.49016e-06 -0.0001401807)

Time = 28

smoothSolver:  Solving for Ux, Initial residual = 0.001078832, Final residual = 9.758385e-05, No Iterations 7
smoothSolver:  Solving for Uy, Initial residual = 0.03071891, Final residual = 0.002382636, No Iterations 3
smoothSolver:  Solving for Uz, Initial residual = 0.0311037, Final residual = 0.002442444, No Iterations 3
DICPCG:  Solving for p, Initial residual = 0.01161012, Final residual = 0.0001101834, No Iterations 6
DICPCG:  Solving for p, Initial residual = 0.001566949, Final residual = 1.496319e-05, No Iterations 129
DICPCG:  Solving for p, Initial residual = 0.0003007508, Final residual = 2.85346e-06, No Iterations 14
time step continuity errors : sum local = 3.868797e-05, global = -2.50905e-06, cumulative = -0.0001697184
ExecutionTime = 6.48 s  ClockTime = 7 s

probesFluid : p
    avg: 100038.8
    min: 100038.8
    max: 100038.8

probesFluid : U
    avg: (0.9911947 -0.0002834762 -0.0006889615)
    min: (0.9911947 -0.0002834762 -0.0006889615)
    max: (0.9911947 -0.0002834762 -0.0006889615)

fieldMinMax MinMaxT:region0 write:
    min(mag(U)) = 0 in cell 31649 at location (0.9373242 0.08596811 -0.05038675) on processor 0
    max(mag(U)) = 0.9942607 in cell 16952 at location (0.392 0.007986152 0.00799895) on processor 1

volFieldValue volAvgFluid write:
    volAverage(region0) of U = (0.5025937 -1.61022e-06 -0.0001407843)

Time = 29

smoothSolver:  Solving for Ux, Initial residual = 0.00101201, Final residual = 9.117057e-05, No Iterations 7
smoothSolver:  Solving for Uy, Initial residual = 0.02879808, Final residual = 0.002212513, No Iterations 3
smoothSolver:  Solving for Uz, Initial residual = 0.0291559, Final residual = 0.002268276, No Iterations 3
DICPCG:  Solving for p, Initial residual = 0.01076468, Final residual = 0.0001003881, No Iterations 6
DICPCG:  Solving for p, Initial residual = 0.001442428, Final residual = 1.402968e-05, No Iterations 140
DICPCG:  Solving for p, Initial residual = 0.0002749877, Final residual = 2.737867e-06, No Iterations 15
time step continuity errors : sum local = 3.755499e-05, global = -2.684623e-06, cumulative = -0.000172403
ExecutionTime = 6.67 s  ClockTime = 7 s

probesFluid : p
    avg: 100038.8
    min: 100038.8
    max: 100038.8

probesFluid : U
    avg: (0.991458 -0.0002255106 -0.000657896)
    min: (0.991458 -0.0002255106 -0.000657896)
    max: (0.991458 -0.0002255106 -0.000657896)

fieldMinMax MinMaxT:region0 write:
    min(mag(U)) = 0 in cell 31649 at location (0.9373242 0.08596811 -0.05038675) on processor 0
    max(mag(U)) = 0.9943699 in cell 16952 at location (0.392 0.007986152 0.00799895) on processor 1

volFieldValue volAvgFluid write:
    volAverage(region0) of U = (0.5025986 -1.714361e-06 -0.0001411791)

Time = 30

smoothSolver:  Solving for Ux, Initial residual = 0.0009499236, Final residual = 8.53626e-05, No Iterations 7
smoothSolver:  Solving for Uy, Initial residual = 0.02701223, Final residual = 0.002057811, No Iterations 3
smoothSolver:  Solving for Uz, Initial residual = 0.02734474, Final residual = 0.002110707, No Iterations 3
DICPCG:  Solving for p, Initial residual = 0.009991709, Final residual = 9.157866e-05, No Iterations 6
DICPCG:  Solving for p, Initial residual = 0.001329442, Final residual = 1.250539e-05, No Iterations 140
DICPCG:  Solving for p, Initial residual = 0.0002520727, Final residual = 2.418329e-06, No Iterations 15
time step continuity errors : sum local = 3.353112e-05, global = -2.384012e-06, cumulative = -0.000174787
ExecutionTime = 6.85 s  ClockTime = 7 s

probesFluid : p
    avg: 100038.8
    min: 100038.8
    max: 100038.8

probesFluid : U
    avg: (0.9916833 -0.0001720751 -0.0006293234)
    min: (0.9916833 -0.0001720751 -0.0006293234)
    max: (0.9916833 -0.0001720751 -0.0006293234)

surfaceFieldValue MassFlowRate_inlet write:
    sum(inlet) of phi = -0.01570224

surfaceFieldValue MassFlowRate_outlet write:
    sum(outlet) of phi = 0.01570209

surfaceFieldValue inletAve_Values write:
    average(inlet) of U = (0.5 0 0)
    average(inlet) of p = 100089.6

surfaceFieldValue outletAve_Values write:
    average(outlet) of U = (0.4594031 0.0007619264 -0.001203322)
    average(outlet) of p = 100000

fieldMinMax MinMaxT:region0 write:
    min(mag(U)) = 0 in cell 31649 at location (0.9373242 0.08596811 -0.05038675) on processor 0
    max(mag(U)) = 0.9944601 in cell 16952 at location (0.392 0.007986152 0.00799895) on processor 1

volFieldValue volAvgFluid write:
    volAverage(region0) of U = (0.5026028 -1.819735e-06 -0.0001414405)

Time = 31

smoothSolver:  Solving for Ux, Initial residual = 0.0008922009, Final residual = 8.00736e-05, No Iterations 7
smoothSolver:  Solving for Uy, Initial residual = 0.02534974, Final residual = 0.001917129, No Iterations 3
smoothSolver:  Solving for Uz, Initial residual = 0.02565739, Final residual = 0.001967353, No Iterations 3
DICPCG:  Solving for p, Initial residual = 0.009283786, Final residual = 8.37263e-05, No Iterations 6
DICPCG:  Solving for p, Initial residual = 0.00122669, Final residual = 1.153116e-05, No Iterations 139
DICPCG:  Solving for p, Initial residual = 0.0002314684, Final residual = 2.175105e-06, No Iterations 16
time step continuity errors : sum local = 3.046107e-05, global = -2.261641e-06, cumulative = -0.0001770486
ExecutionTime = 7.03 s  ClockTime = 7 s

probesFluid : p
    avg: 100038.8
    min: 100038.8
    max: 100038.8

probesFluid : U
    avg: (0.9918768 -0.0001228752 -0.0006031267)
    min: (0.9918768 -0.0001228752 -0.0006031267)
    max: (0.9918768 -0.0001228752 -0.0006031267)

fieldMinMax MinMaxT:region0 write:
    min(mag(U)) = 0 in cell 31649 at location (0.9373242 0.08596811 -0.05038675) on processor 0
    max(mag(U)) = 0.9945343 in cell 16952 at location (0.392 0.007986152 0.00799895) on processor 1

volFieldValue volAvgFluid write:
    volAverage(region0) of U = (0.5026063 -1.936284e-06 -0.0001415809)

Time = 32

smoothSolver:  Solving for Ux, Initial residual = 0.0008384666, Final residual = 7.523855e-05, No Iterations 7
smoothSolver:  Solving for Uy, Initial residual = 0.02380044, Final residual = 0.001789554, No Iterations 3
smoothSolver:  Solving for Uz, Initial residual = 0.02408546, Final residual = 0.001837268, No Iterations 3
DICPCG:  Solving for p, Initial residual = 0.008634255, Final residual = 7.676879e-05, No Iterations 6
DICPCG:  Solving for p, Initial residual = 0.001133093, Final residual = 1.009642e-05, No Iterations 139
DICPCG:  Solving for p, Initial residual = 0.0002127692, Final residual = 1.974159e-06, No Iterations 16
time step continuity errors : sum local = 2.790384e-05, global = -2.036471e-06, cumulative = -0.0001790851
ExecutionTime = 7.22 s  ClockTime = 8 s

probesFluid : p
    avg: 100038.8
    min: 100038.8
    max: 100038.8

probesFluid : U
    avg: (0.9920435 -7.75206e-05 -0.0005790097)
    min: (0.9920435 -7.75206e-05 -0.0005790097)
    max: (0.9920435 -7.75206e-05 -0.0005790097)

fieldMinMax MinMaxT:region0 write:
    min(mag(U)) = 0 in cell 31649 at location (0.9373242 0.08596811 -0.05038675) on processor 0
    max(mag(U)) = 0.9945956 in cell 16952 at location (0.392 0.007986152 0.00799895) on processor 1

volFieldValue volAvgFluid write:
    volAverage(region0) of U = (0.5026093 -2.088889e-06 -0.0001416157)

Time = 33

smoothSolver:  Solving for Ux, Initial residual = 0.0007884106, Final residual = 7.080327e-05, No Iterations 7
smoothSolver:  Solving for Uy, Initial residual = 0.02235589, Final residual = 0.001674109, No Iterations 3
smoothSolver:  Solving for Uz, Initial residual = 0.02262019, Final residual = 0.001719238, No Iterations 3
DICPCG:  Solving for p, Initial residual = 0.008037233, Final residual = 7.059296e-05, No Iterations 6
DICPCG:  Solving for p, Initial residual = 0.001047675, Final residual = 1.040559e-05, No Iterations 101
DICPCG:  Solving for p, Initial residual = 0.0001956378, Final residual = 1.68403e-06, No Iterations 141
time step continuity errors : sum local = 2.4007e-05, global = -1.020596e-07, cumulative = -0.0001791872
ExecutionTime = 7.45 s  ClockTime = 8 s

probesFluid : p
    avg: 100038.9
    min: 100038.9
    max: 100038.9

probesFluid : U
    avg: (0.992189 -3.560114e-05 -0.000556633)
    min: (0.992189 -3.560114e-05 -0.000556633)
    max: (0.992189 -3.560114e-05 -0.000556633)

fieldMinMax MinMaxT:region0 write:
    min(mag(U)) = 0 in cell 31649 at location (0.9373242 0.08596811 -0.05038675) on processor 0
    max(mag(U)) = 0.9946485 in cell 16952 at location (0.392 0.007986152 0.00799895) on processor 1

volFieldValue volAvgFluid write:
    volAverage(region0) of U = (0.5026123 -2.235043e-06 -0.0001414903)

Time = 34

smoothSolver:  Solving for Ux, Initial residual = 0.000741796, Final residual = 6.671497e-05, No Iterations 7
smoothSolver:  Solving for Uy, Initial residual = 0.02100992, Final residual = 0.001570347, No Iterations 3
smoothSolver:  Solving for Uz, Initial residual = 0.02125516, Final residual = 0.001612419, No Iterations 3
DICPCG:  Solving for p, Initial residual = 0.007487528, Final residual = 6.494914e-05, No Iterations 6
DICPCG:  Solving for p, Initial residual = 0.0009695651, Final residual = 9.417852e-06, No Iterations 98
DICPCG:  Solving for p, Initial residual = 0.0001802468, Final residual = 1.739304e-06, No Iterations 134
time step continuity errors : sum local = 2.499356e-05, global = 1.229402e-07, cumulative = -0.0001790642
ExecutionTime = 7.69 s  ClockTime = 8 s

probesFluid : p
    avg: 100038.9
    min: 100038.9
    max: 100038.9

probesFluid : U
    avg: (0.9923157 2.902425e-06 -0.000536536)
    min: (0.9923157 2.902425e-06 -0.000536536)
    max: (0.9923157 2.902425e-06 -0.000536536)

fieldMinMax MinMaxT:region0 write:
    min(mag(U)) = 0 in cell 31649 at location (0.9373242 0.08596811 -0.05038675) on processor 0
    max(mag(U)) = 0.9946911 in cell 16952 at location (0.392 0.007986152 0.00799895) on processor 1

volFieldValue volAvgFluid write:
    volAverage(region0) of U = (0.5026146 -2.418678e-06 -0.000141356)

Time = 35

smoothSolver:  Solving for Ux, Initial residual = 0.0006981275, Final residual = 6.294973e-05, No Iterations 7
smoothSolver:  Solving for Uy, Initial residual = 0.01975243, Final residual = 0.001477533, No Iterations 3
smoothSolver:  Solving for Uz, Initial residual = 0.01997996, Final residual = 0.001515994, No Iterations 3
DICPCG:  Solving for p, Initial residual = 0.006980736, Final residual = 6.003279e-05, No Iterations 6
DICPCG:  Solving for p, Initial residual = 0.0008981015, Final residual = 8.94028e-06, No Iterations 42
DICPCG:  Solving for p, Initial residual = 0.000165611, Final residual = 1.630715e-06, No Iterations 140
time step continuity errors : sum local = 2.360689e-05, global = 5.917449e-09, cumulative = -0.0001790583
ExecutionTime = 7.89 s  ClockTime = 8 s

probesFluid : p
    avg: 100038.9
    min: 100038.9
    max: 100038.9

probesFluid : U
    avg: (0.9924237 3.835174e-05 -0.0005176844)
    min: (0.9924237 3.835174e-05 -0.0005176844)
    max: (0.9924237 3.835174e-05 -0.0005176844)

surfaceFieldValue MassFlowRate_inlet write:
    sum(inlet) of phi = -0.01570224

surfaceFieldValue MassFlowRate_outlet write:
    sum(outlet) of phi = 0.01570224

surfaceFieldValue inletAve_Values write:
    average(inlet) of U = (0.5 0 0)
    average(inlet) of p = 100089.7

surfaceFieldValue outletAve_Values write:
    average(outlet) of U = (0.4586675 0.0007795605 -0.001315051)
    average(outlet) of p = 100000

fieldMinMax MinMaxT:region0 write:
    min(mag(U)) = 0 in cell 31649 at location (0.9373242 0.08596811 -0.05038675) on processor 0
    max(mag(U)) = 0.9947272 in cell 16952 at location (0.392 0.007986152 0.00799895) on processor 1

volFieldValue volAvgFluid write:
    volAverage(region0) of U = (0.5026163 -2.715038e-06 -0.0001410963)

Time = 36

smoothSolver:  Solving for Ux, Initial residual = 0.0006574082, Final residual = 5.946778e-05, No Iterations 7
smoothSolver:  Solving for Uy, Initial residual = 0.0185802, Final residual = 0.001393914, No Iterations 3
smoothSolver:  Solving for Uz, Initial residual = 0.01879173, Final residual = 0.001428756, No Iterations 3
DICPCG:  Solving for p, Initial residual = 0.006512806, Final residual = 5.563222e-05, No Iterations 6
DICPCG:  Solving for p, Initial residual = 0.0008326025, Final residual = 8.285485e-06, No Iterations 15
DICPCG:  Solving for p, Initial residual = 0.0001524059, Final residual = 1.289171e-06, No Iterations 139
time step continuity errors : sum local = 1.879155e-05, global = -1.289676e-07, cumulative = -0.0001791873
ExecutionTime = 8.09 s  ClockTime = 9 s

probesFluid : p
    avg: 100038.9
    min: 100038.9
    max: 100038.9

probesFluid : U
    avg: (0.9925182 7.058573e-05 -0.0005005354)
    min: (0.9925182 7.058573e-05 -0.0005005354)
    max: (0.9925182 7.058573e-05 -0.0005005354)

fieldMinMax MinMaxT:region0 write:
    min(mag(U)) = 0 in cell 31649 at location (0.9373242 0.08596811 -0.05038675) on processor 0
    max(mag(U)) = 0.9947576 in cell 16952 at location (0.392 0.007986152 0.00799895) on processor 1

volFieldValue volAvgFluid write:
    volAverage(region0) of U = (0.5026177 -2.976884e-06 -0.0001407585)

Time = 37

smoothSolver:  Solving for Ux, Initial residual = 0.0006192844, Final residual = 5.623841e-05, No Iterations 7
smoothSolver:  Solving for Uy, Initial residual = 0.01748326, Final residual = 0.001318281, No Iterations 3
smoothSolver:  Solving for Uz, Initial residual = 0.01768006, Final residual = 0.001350246, No Iterations 3
DICPCG:  Solving for p, Initial residual = 0.006080333, Final residual = 5.163651e-05, No Iterations 6
DICPCG:  Solving for p, Initial residual = 0.0007724797, Final residual = 7.64325e-06, No Iterations 13
DICPCG:  Solving for p, Initial residual = 0.0001413103, Final residual = 1.293173e-06, No Iterations 140
time step continuity errors : sum local = 1.897122e-05, global = -2.335642e-07, cumulative = -0.0001794209
ExecutionTime = 8.28 s  ClockTime = 9 s

probesFluid : p
    avg: 100038.9
    min: 100038.9
    max: 100038.9

probesFluid : U
    avg: (0.9926013 0.0001001866 -0.0004848916)
    min: (0.9926013 0.0001001866 -0.0004848916)
    max: (0.9926013 0.0001001866 -0.0004848916)

fieldMinMax MinMaxT:region0 write:
    min(mag(U)) = 0 in cell 31649 at location (0.9373242 0.08596811 -0.05038675) on processor 0
    max(mag(U)) = 0.9947832 in cell 16952 at location (0.392 0.007986152 0.00799895) on processor 1

volFieldValue volAvgFluid write:
    volAverage(region0) of U = (0.5026189 -3.320129e-06 -0.0001403911)

Time = 38

smoothSolver:  Solving for Ux, Initial residual = 0.0005836045, Final residual = 5.323497e-05, No Iterations 7
smoothSolver:  Solving for Uy, Initial residual = 0.01645693, Final residual = 0.001249591, No Iterations 3
smoothSolver:  Solving for Uz, Initial residual = 0.01664041, Final residual = 0.001279204, No Iterations 3
DICPCG:  Solving for p, Initial residual = 0.005680112, Final residual = 4.803012e-05, No Iterations 6
DICPCG:  Solving for p, Initial residual = 0.0007172124, Final residual = 6.837657e-06, No Iterations 13
DICPCG:  Solving for p, Initial residual = 0.0001309619, Final residual = 1.214841e-06, No Iterations 140
time step continuity errors : sum local = 1.792886e-05, global = -2.36312e-07, cumulative = -0.0001796572
ExecutionTime = 8.47 s  ClockTime = 9 s

probesFluid : p
    avg: 100038.9
    min: 100038.9
    max: 100038.9

probesFluid : U
    avg: (0.9926747 0.0001271916 -0.0004706608)
    min: (0.9926747 0.0001271916 -0.0004706608)
    max: (0.9926747 0.0001271916 -0.0004706608)

fieldMinMax MinMaxT:region0 write:
    min(mag(U)) = 0 in cell 31649 at location (0.9373242 0.08596811 -0.05038675) on processor 0
    max(mag(U)) = 0.9948051 in cell 16952 at location (0.392 0.007986152 0.00799895) on processor 1

volFieldValue volAvgFluid write:
    volAverage(region0) of U = (0.50262 -3.712499e-06 -0.0001399869)

Time = 39

smoothSolver:  Solving for Ux, Initial residual = 0.0005501681, Final residual = 5.043652e-05, No Iterations 7
smoothSolver:  Solving for Uy, Initial residual = 0.01549733, Final residual = 0.001187528, No Iterations 3
smoothSolver:  Solving for Uz, Initial residual = 0.01566841, Final residual = 0.001214752, No Iterations 3
DICPCG:  Solving for p, Initial residual = 0.005309299, Final residual = 4.46868e-05, No Iterations 6
DICPCG:  Solving for p, Initial residual = 0.0006663439, Final residual = 6.65338e-06, No Iterations 12
DICPCG:  Solving for p, Initial residual = 0.0001214209, Final residual = 1.034077e-06, No Iterations 141
time step continuity errors : sum local = 1.53462e-05, global = -2.018655e-07, cumulative = -0.000179859
ExecutionTime = 8.67 s  ClockTime = 9 s

probesFluid : p
    avg: 100038.9
    min: 100038.9
    max: 100038.9

probesFluid : U
    avg: (0.9927396 0.0001517892 -0.0004577382)
    min: (0.9927396 0.0001517892 -0.0004577382)
    max: (0.9927396 0.0001517892 -0.0004577382)

fieldMinMax MinMaxT:region0 write:
    min(mag(U)) = 0 in cell 31649 at location (0.9373242 0.08596811 -0.05038675) on processor 0
    max(mag(U)) = 0.994824 in cell 16952 at location (0.392 0.007986152 0.00799895) on processor 1

volFieldValue volAvgFluid write:
    volAverage(region0) of U = (0.502621 -4.143499e-06 -0.0001395478)

Time = 40

smoothSolver:  Solving for Ux, Initial residual = 0.0005188221, Final residual = 4.782407e-05, No Iterations 7
smoothSolver:  Solving for Uy, Initial residual = 0.01459977, Final residual = 0.001131286, No Iterations 3
smoothSolver:  Solving for Uz, Initial residual = 0.01475964, Final residual = 0.001155983, No Iterations 3
DICPCG:  Solving for p, Initial residual = 0.004965383, Final residual = 4.15665e-05, No Iterations 6
DICPCG:  Solving for p, Initial residual = 0.0006194685, Final residual = 5.991689e-06, No Iterations 12
DICPCG:  Solving for p, Initial residual = 0.0001126717, Final residual = 1.100791e-06, No Iterations 140
time step continuity errors : sum local = 1.642107e-05, global = -2.272928e-07, cumulative = -0.0001800863
ExecutionTime = 8.86 s  ClockTime = 9 s

probesFluid : p
    avg: 100038.9
    min: 100038.9
    max: 100038.9

probesFluid : U
    avg: (0.9927972 0.0001744152 -0.0004459132)
    min: (0.9927972 0.0001744152 -0.0004459132)
    max: (0.9927972 0.0001744152 -0.0004459132)

surfaceFieldValue MassFlowRate_inlet write:
    sum(inlet) of phi = -0.01570224

surfaceFieldValue MassFlowRate_outlet write:
    sum(outlet) of phi = 0.01570222

surfaceFieldValue inletAve_Values write:
    average(inlet) of U = (0.5 0 0)
    average(inlet) of p = 100089.8

surfaceFieldValue outletAve_Values write:
    average(outlet) of U = (0.4580773 0.000762503 -0.001397224)
    average(outlet) of p = 100000

fieldMinMax MinMaxT:region0 write:
    min(mag(U)) = 0 in cell 31649 at location (0.9373242 0.08596811 -0.05038675) on processor 0
    max(mag(U)) = 0.9948407 in cell 16952 at location (0.392 0.007986152 0.00799895) on processor 1

volFieldValue volAvgFluid write:
    volAverage(region0) of U = (0.5026218 -4.601345e-06 -0.0001390396)

Time = 41

smoothSolver:  Solving for Ux, Initial residual = 0.0004894365, Final residual = 4.538234e-05, No Iterations 7
smoothSolver:  Solving for Uy, Initial residual = 0.0137597, Final residual = 0.001079834, No Iterations 3
smoothSolver:  Solving for Uz, Initial residual = 0.01390957, Final residual = 0.001102166, No Iterations 3
DICPCG:  Solving for p, Initial residual = 0.004646108, Final residual = 3.869058e-05, No Iterations 6
DICPCG:  Solving for p, Initial residual = 0.0005762396, Final residual = 5.403726e-06, No Iterations 12
DICPCG:  Solving for p, Initial residual = 0.0001046233, Final residual = 9.744646e-07, No Iterations 140
time step continuity errors : sum local = 1.4607e-05, global = -1.946963e-07, cumulative = -0.000180281
ExecutionTime = 9.04 s  ClockTime = 9 s

probesFluid : p
    avg: 100038.9
    min: 100038.9
    max: 100038.9

probesFluid : U
    avg: (0.9928487 0.0001951257 -0.000435096)
    min: (0.9928487 0.0001951257 -0.000435096)
    max: (0.9928487 0.0001951257 -0.000435096)

fieldMinMax MinMaxT:region0 write:
    min(mag(U)) = 0 in cell 31649 at location (0.9373242 0.08596811 -0.05038675) on processor 0
    max(mag(U)) = 0.9948555 in cell 16952 at location (0.392 0.007986152 0.00799895) on processor 1

volFieldValue volAvgFluid write:
    volAverage(region0) of U = (0.5026225 -5.086418e-06 -0.0001384839)

Time = 42

smoothSolver:  Solving for Ux, Initial residual = 0.0004618692, Final residual = 4.309676e-05, No Iterations 7
smoothSolver:  Solving for Uy, Initial residual = 0.01297304, Final residual = 0.00103252, No Iterations 3
smoothSolver:  Solving for Uz, Initial residual = 0.0131141, Final residual = 0.001052819, No Iterations 3
DICPCG:  Solving for p, Initial residual = 0.00434943, Final residual = 3.603273e-05, No Iterations 6
DICPCG:  Solving for p, Initial residual = 0.0005363373, Final residual = 4.882768e-06, No Iterations 12
DICPCG:  Solving for p, Initial residual = 9.721074e-05, Final residual = 8.951519e-07, No Iterations 140
time step continuity errors : sum local = 1.347876e-05, global = -1.665914e-07, cumulative = -0.0001804476
ExecutionTime = 9.22 s  ClockTime = 10 s

probesFluid : p
    avg: 100038.9
    min: 100038.9
    max: 100038.9

probesFluid : U
    avg: (0.9928948 0.0002140601 -0.0004252247)
    min: (0.9928948 0.0002140601 -0.0004252247)
    max: (0.9928948 0.0002140601 -0.0004252247)

fieldMinMax MinMaxT:region0 write:
    min(mag(U)) = 0 in cell 31649 at location (0.9373242 0.08596811 -0.05038675) on processor 0
    max(mag(U)) = 0.9948687 in cell 16952 at location (0.392 0.007986152 0.00799895) on processor 1

volFieldValue volAvgFluid write:
    volAverage(region0) of U = (0.5026232 -5.599426e-06 -0.0001378871)

Time = 43

smoothSolver:  Solving for Ux, Initial residual = 0.0004359961, Final residual = 4.095432e-05, No Iterations 7
smoothSolver:  Solving for Uy, Initial residual = 0.01223617, Final residual = 0.0009889391, No Iterations 3
smoothSolver:  Solving for Uz, Initial residual = 0.01236927, Final residual = 0.00100759, No Iterations 3
DICPCG:  Solving for p, Initial residual = 0.004073488, Final residual = 3.357149e-05, No Iterations 6
DICPCG:  Solving for p, Initial residual = 0.0004994758, Final residual = 4.42611e-06, No Iterations 12
DICPCG:  Solving for p, Initial residual = 9.037931e-05, Final residual = 8.179766e-07, No Iterations 140
time step continuity errors : sum local = 1.236855e-05, global = -1.469812e-07, cumulative = -0.0001805946
ExecutionTime = 9.41 s  ClockTime = 10 s

probesFluid : p
    avg: 100038.9
    min: 100038.9
    max: 100038.9

probesFluid : U
    avg: (0.992936 0.0002313537 -0.0004162195)
    min: (0.992936 0.0002313537 -0.0004162195)
    max: (0.992936 0.0002313537 -0.0004162195)

fieldMinMax MinMaxT:region0 write:
    min(mag(U)) = 0 in cell 31649 at location (0.9373242 0.08596811 -0.05038675) on processor 0
    max(mag(U)) = 0.9948804 in cell 16952 at location (0.392 0.007986152 0.00799895) on processor 1

volFieldValue volAvgFluid write:
    volAverage(region0) of U = (0.5026237 -6.14015e-06 -0.0001372541)

Time = 44

smoothSolver:  Solving for Ux, Initial residual = 0.0004117037, Final residual = 3.894308e-05, No Iterations 7
smoothSolver:  Solving for Uy, Initial residual = 0.01154577, Final residual = 0.0009488419, No Iterations 3
smoothSolver:  Solving for Uz, Initial residual = 0.01167154, Final residual = 0.0009662924, No Iterations 3
DICPCG:  Solving for p, Initial residual = 0.003816609, Final residual = 3.128782e-05, No Iterations 6
DICPCG:  Solving for p, Initial residual = 0.0004653927, Final residual = 4.59564e-06, No Iterations 11
DICPCG:  Solving for p, Initial residual = 8.42177e-05, Final residual = 7.059275e-07, No Iterations 141
time step continuity errors : sum local = 1.07163e-05, global = -1.010867e-07, cumulative = -0.0001806957
ExecutionTime = 9.61 s  ClockTime = 10 s

probesFluid : p
    avg: 100038.9
    min: 100038.9
    max: 100038.9

probesFluid : U
    avg: (0.992973 0.0002470645 -0.000408032)
    min: (0.992973 0.0002470645 -0.000408032)
    max: (0.992973 0.0002470645 -0.000408032)

fieldMinMax MinMaxT:region0 write:
    min(mag(U)) = 0 in cell 31649 at location (0.9373242 0.08596811 -0.05038675) on processor 0
    max(mag(U)) = 0.9948909 in cell 16952 at location (0.392 0.007986152 0.00799895) on processor 1

volFieldValue volAvgFluid write:
    volAverage(region0) of U = (0.5026242 -6.702864e-06 -0.0001365954)

Time = 45

smoothSolver:  Solving for Ux, Initial residual = 0.0003888835, Final residual = 3.705299e-05, No Iterations 7
smoothSolver:  Solving for Uy, Initial residual = 0.01089864, Final residual = 0.0009118329, No Iterations 3
smoothSolver:  Solving for Uz, Initial residual = 0.01101777, Final residual = 0.0009284588, No Iterations 3
DICPCG:  Solving for p, Initial residual = 0.003577336, Final residual = 2.916392e-05, No Iterations 6
DICPCG:  Solving for p, Initial residual = 0.0004338516, Final residual = 4.220813e-06, No Iterations 11
DICPCG:  Solving for p, Initial residual = 7.839634e-05, Final residual = 6.446551e-07, No Iterations 141
time step continuity errors : sum local = 9.822031e-06, global = -9.502929e-08, cumulative = -0.0001807907
ExecutionTime = 9.8 s  ClockTime = 10 s

probesFluid : p
    avg: 100038.9
    min: 100038.9
    max: 100038.9

probesFluid : U
    avg: (0.9930062 0.000261434 -0.0004005768)
    min: (0.9930062 0.000261434 -0.0004005768)
    max: (0.9930062 0.000261434 -0.0004005768)

surfaceFieldValue MassFlowRate_inlet write:
    sum(inlet) of phi = -0.01570224

surfaceFieldValue MassFlowRate_outlet write:
    sum(outlet) of phi = 0.01570223

surfaceFieldValue inletAve_Values write:
    average(inlet) of U = (0.5 0 0)
    average(inlet) of p = 100089.8

surfaceFieldValue outletAve_Values write:
    average(outlet) of U = (0.4576023 0.0007195356 -0.001454423)
    average(outlet) of p = 100000

fieldMinMax MinMaxT:region0 write:
    min(mag(U)) = 0 in cell 31649 at location (0.9373242 0.08596811 -0.05038675) on processor 0
    max(mag(U)) = 0.9949003 in cell 16952 at location (0.392 0.007986152 0.00799895) on processor 1

volFieldValue volAvgFluid write:
    volAverage(region0) of U = (0.5026246 -7.295182e-06 -0.0001359048)

Time = 46

smoothSolver:  Solving for Ux, Initial residual = 0.0003674433, Final residual = 3.527432e-05, No Iterations 7
smoothSolver:  Solving for Uy, Initial residual = 0.01029159, Final residual = 0.0008776071, No Iterations 3
smoothSolver:  Solving for Uz, Initial residual = 0.010405, Final residual = 0.000893467, No Iterations 3
DICPCG:  Solving for p, Initial residual = 0.003354317, Final residual = 2.71862e-05, No Iterations 6
DICPCG:  Solving for p, Initial residual = 0.0004046407, Final residual = 3.887957e-06, No Iterations 11
DICPCG:  Solving for p, Initial residual = 7.301729e-05, Final residual = 7.259856e-07, No Iterations 140
time step continuity errors : sum local = 1.109908e-05, global = -1.254384e-07, cumulative = -0.0001809161
ExecutionTime = 9.98 s  ClockTime = 10 s

probesFluid : p
    avg: 100038.9
    min: 100038.9
    max: 100038.9

probesFluid : U
    avg: (0.993036 0.0002746339 -0.0003937633)
    min: (0.993036 0.0002746339 -0.0003937633)
    max: (0.993036 0.0002746339 -0.0003937633)

fieldMinMax MinMaxT:region0 write:
    min(mag(U)) = 0 in cell 31649 at location (0.9373242 0.08596811 -0.05038675) on processor 0
    max(mag(U)) = 0.9949088 in cell 16952 at location (0.392 0.007986152 0.00799895) on processor 1

volFieldValue volAvgFluid write:
    volAverage(region0) of U = (0.502625 -7.912038e-06 -0.0001351803)

Time = 47

smoothSolver:  Solving for Ux, Initial residual = 0.0003472921, Final residual = 3.359897e-05, No Iterations 7
smoothSolver:  Solving for Uy, Initial residual = 0.009722051, Final residual = 0.0008458436, No Iterations 3
smoothSolver:  Solving for Uz, Initial residual = 0.009830321, Final residual = 0.0008609354, No Iterations 3
DICPCG:  Solving for p, Initial residual = 0.003146312, Final residual = 2.534173e-05, No Iterations 6
DICPCG:  Solving for p, Initial residual = 0.0003775673, Final residual = 3.589705e-06, No Iterations 11
DICPCG:  Solving for p, Initial residual = 6.80415e-05, Final residual = 6.266237e-07, No Iterations 140
time step continuity errors : sum local = 9.610652e-06, global = -1.1362e-07, cumulative = -0.0001810298
ExecutionTime = 10.15 s  ClockTime = 11 s

probesFluid : p
    avg: 100038.9
    min: 100038.9
    max: 100038.9

probesFluid : U
    avg: (0.9930629 0.0002866834 -0.0003875592)
    min: (0.9930629 0.0002866834 -0.0003875592)
    max: (0.9930629 0.0002866834 -0.0003875592)

fieldMinMax MinMaxT:region0 write:
    min(mag(U)) = 0 in cell 31649 at location (0.9373242 0.08596811 -0.05038675) on processor 0
    max(mag(U)) = 0.9949164 in cell 16952 at location (0.392 0.007986152 0.00799895) on processor 1

volFieldValue volAvgFluid write:
    volAverage(region0) of U = (0.5026253 -8.552615e-06 -0.0001344354)

Time = 48

smoothSolver:  Solving for Ux, Initial residual = 0.0003283427, Final residual = 3.201942e-05, No Iterations 7
smoothSolver:  Solving for Uy, Initial residual = 0.009187655, Final residual = 0.000816311, No Iterations 3
smoothSolver:  Solving for Uz, Initial residual = 0.00929116, Final residual = 0.0008306403, No Iterations 3
DICPCG:  Solving for p, Initial residual = 0.002952194, Final residual = 2.361902e-05, No Iterations 6
DICPCG:  Solving for p, Initial residual = 0.0003524535, Final residual = 3.318419e-06, No Iterations 11
DICPCG:  Solving for p, Initial residual = 6.343276e-05, Final residual = 6.199692e-07, No Iterations 139
time step continuity errors : sum local = 9.536986e-06, global = -1.306873e-07, cumulative = -0.0001811605
ExecutionTime = 10.32 s  ClockTime = 11 s

probesFluid : p
    avg: 100038.9
    min: 100038.9
    max: 100038.9

probesFluid : U
    avg: (0.9930872 0.000297705 -0.0003819022)
    min: (0.9930872 0.000297705 -0.0003819022)
    max: (0.9930872 0.000297705 -0.0003819022)

fieldMinMax MinMaxT:region0 write:
    min(mag(U)) = 0 in cell 31649 at location (0.9373242 0.08596811 -0.05038675) on processor 0
    max(mag(U)) = 0.9949232 in cell 16952 at location (0.392 0.007986152 0.00799895) on processor 1

volFieldValue volAvgFluid write:
    volAverage(region0) of U = (0.5026256 -9.214262e-06 -0.0001336662)

Time = 49

smoothSolver:  Solving for Ux, Initial residual = 0.0003105185, Final residual = 3.05291e-05, No Iterations 7
smoothSolver:  Solving for Uy, Initial residual = 0.008685918, Final residual = 0.0007887542, No Iterations 3
smoothSolver:  Solving for Uz, Initial residual = 0.008785021, Final residual = 0.0008023345, No Iterations 3
DICPCG:  Solving for p, Initial residual = 0.002770966, Final residual = 2.200786e-05, No Iterations 6
DICPCG:  Solving for p, Initial residual = 0.0003291431, Final residual = 3.071337e-06, No Iterations 11
DICPCG:  Solving for p, Initial residual = 5.916144e-05, Final residual = 5.687178e-07, No Iterations 138
time step continuity errors : sum local = 8.773023e-06, global = -1.207737e-07, cumulative = -0.0001812812
ExecutionTime = 10.5 s  ClockTime = 11 s

probesFluid : p
    avg: 100038.9
    min: 100038.9
    max: 100038.9

probesFluid : U
    avg: (0.9931091 0.0003078158 -0.000376779)
    min: (0.9931091 0.0003078158 -0.000376779)
    max: (0.9931091 0.0003078158 -0.000376779)

fieldMinMax MinMaxT:region0 write:
    min(mag(U)) = 0 in cell 31649 at location (0.9373242 0.08596811 -0.05038675) on processor 0
    max(mag(U)) = 0.9949293 in cell 16952 at location (0.392 0.007986152 0.00799895) on processor 1

volFieldValue volAvgFluid write:
    volAverage(region0) of U = (0.5026258 -9.895995e-06 -0.0001328801)

Time = 50

smoothSolver:  Solving for Ux, Initial residual = 0.0002937469, Final residual = 2.912166e-05, No Iterations 7
smoothSolver:  Solving for Uy, Initial residual = 0.008214691, Final residual = 0.0007630214, No Iterations 3
smoothSolver:  Solving for Uz, Initial residual = 0.008309666, Final residual = 0.0007758501, No Iterations 3
DICPCG:  Solving for p, Initial residual = 0.002601683, Final residual = 2.050175e-05, No Iterations 6
DICPCG:  Solving for p, Initial residual = 0.0003074958, Final residual = 2.844909e-06, No Iterations 11
DICPCG:  Solving for p, Initial residual = 5.519957e-05, Final residual = 4.798299e-07, No Iterations 138
time step continuity errors : sum local = 7.421151e-06, global = -8.638734e-08, cumulative = -0.0001813676
ExecutionTime = 10.68 s  ClockTime = 11 s

probesFluid : p
    avg: 100039
    min: 100039
    max: 100039

probesFluid : U
    avg: (0.9931289 0.0003170068 -0.0003721264)
    min: (0.9931289 0.0003170068 -0.0003721264)
    max: (0.9931289 0.0003170068 -0.0003721264)

surfaceFieldValue MassFlowRate_inlet write:
    sum(inlet) of phi = -0.01570224

surfaceFieldValue MassFlowRate_outlet write:
    sum(outlet) of phi = 0.01570223

surfaceFieldValue inletAve_Values write:
    average(inlet) of U = (0.5 0 0)
    average(inlet) of p = 100089.9

surfaceFieldValue outletAve_Values write:
    average(outlet) of U = (0.457216 0.0006579377 -0.001491043)
    average(outlet) of p = 100000

fieldMinMax MinMaxT:region0 write:
    min(mag(U)) = 0 in cell 31649 at location (0.9373242 0.08596811 -0.05038675) on processor 0
    max(mag(U)) = 0.9949348 in cell 16952 at location (0.392 0.007986152 0.00799895) on processor 1

volFieldValue volAvgFluid write:
    volAverage(region0) of U = (0.502626 -1.059521e-05 -0.0001320795)

Time = 51

smoothSolver:  Solving for Ux, Initial residual = 0.0002779579, Final residual = 2.779153e-05, No Iterations 7
smoothSolver:  Solving for Uy, Initial residual = 0.00777193, Final residual = 0.0007389191, No Iterations 3
smoothSolver:  Solving for Uz, Initial residual = 0.00786294, Final residual = 0.0007510048, No Iterations 3
DICPCG:  Solving for p, Initial residual = 0.002443471, Final residual = 1.90982e-05, No Iterations 6
DICPCG:  Solving for p, Initial residual = 0.0002873835, Final residual = 2.636057e-06, No Iterations 11
DICPCG:  Solving for p, Initial residual = 5.152262e-05, Final residual = 4.685345e-07, No Iterations 138
time step continuity errors : sum local = 7.264146e-06, global = -8.744636e-08, cumulative = -0.0001814551
ExecutionTime = 10.96 s  ClockTime = 11 s

probesFluid : p
    avg: 100039
    min: 100039
    max: 100039

probesFluid : U
    avg: (0.9931468 0.0003253848 -0.0003678997)
    min: (0.9931468 0.0003253848 -0.0003678997)
    max: (0.9931468 0.0003253848 -0.0003678997)

fieldMinMax MinMaxT:region0 write:
    min(mag(U)) = 0 in cell 31649 at location (0.9373242 0.08596811 -0.05038675) on processor 0
    max(mag(U)) = 0.9949397 in cell 16952 at location (0.392 0.007986152 0.00799895) on processor 1

volFieldValue volAvgFluid write:
    volAverage(region0) of U = (0.5026262 -1.130901e-05 -0.0001312621)

Time = 52

smoothSolver:  Solving for Ux, Initial residual = 0.0002630929, Final residual = 2.130542e-05, No Iterations 8
smoothSolver:  Solving for Uy, Initial residual = 0.007355752, Final residual = 0.0007162711, No Iterations 3
smoothSolver:  Solving for Uz, Initial residual = 0.007442893, Final residual = 0.0007276046, No Iterations 3
DICPCG:  Solving for p, Initial residual = 0.002296217, Final residual = 2.12563e-05, No Iterations 6
DICPCG:  Solving for p, Initial residual = 0.0002698767, Final residual = 2.588628e-06, No Iterations 12
DICPCG:  Solving for p, Initial residual = 4.855986e-05, Final residual = 4.416164e-07, No Iterations 139
time step continuity errors : sum local = 6.862424e-06, global = -1.513574e-08, cumulative = -0.0001814702
ExecutionTime = 11.16 s  ClockTime = 12 s

probesFluid : p
    avg: 100039
    min: 100039
    max: 100039

probesFluid : U
    avg: (0.9931635 0.0003331309 -0.0003638969)
    min: (0.9931635 0.0003331309 -0.0003638969)
    max: (0.9931635 0.0003331309 -0.0003638969)

fieldMinMax MinMaxT:region0 write:
    min(mag(U)) = 0 in cell 31649 at location (0.9373242 0.08596811 -0.05038675) on processor 0
    max(mag(U)) = 0.994944 in cell 16952 at location (0.392 0.007986152 0.00799895) on processor 1

volFieldValue volAvgFluid write:
    volAverage(region0) of U = (0.5026262 -1.205836e-05 -0.0001304043)

Time = 53

smoothSolver:  Solving for Ux, Initial residual = 0.0002487757, Final residual = 2.029393e-05, No Iterations 8
smoothSolver:  Solving for Uy, Initial residual = 0.006974081, Final residual = 0.000523945, No Iterations 4
smoothSolver:  Solving for Uz, Initial residual = 0.007056885, Final residual = 0.0005331226, No Iterations 4
DICPCG:  Solving for p, Initial residual = 0.002157991, Final residual = 1.458086e-05, No Iterations 6
DICPCG:  Solving for p, Initial residual = 0.0002516595, Final residual = 2.352384e-06, No Iterations 11
DICPCG:  Solving for p, Initial residual = 4.474212e-05, Final residual = 4.268226e-07, No Iterations 140
time step continuity errors : sum local = 6.64663e-06, global = -4.065695e-08, cumulative = -0.0001815109
ExecutionTime = 11.35 s  ClockTime = 12 s

probesFluid : p
    avg: 100039
    min: 100039
    max: 100039

probesFluid : U
    avg: (0.9931785 0.0003413555 -0.000359645)
    min: (0.9931785 0.0003413555 -0.000359645)
    max: (0.9931785 0.0003413555 -0.000359645)

fieldMinMax MinMaxT:region0 write:
    min(mag(U)) = 0 in cell 31649 at location (0.9373242 0.08596811 -0.05038675) on processor 0
    max(mag(U)) = 0.9949481 in cell 16952 at location (0.392 0.007986152 0.00799895) on processor 1

volFieldValue volAvgFluid write:
    volAverage(region0) of U = (0.5026264 -1.288518e-05 -0.0001295067)

Time = 54

smoothSolver:  Solving for Ux, Initial residual = 0.0002358352, Final residual = 1.937287e-05, No Iterations 8
smoothSolver:  Solving for Uy, Initial residual = 0.006587909, Final residual = 0.0004986764, No Iterations 4
smoothSolver:  Solving for Uz, Initial residual = 0.006668841, Final residual = 0.0005070904, No Iterations 4
DICPCG:  Solving for p, Initial residual = 0.002028784, Final residual = 1.393185e-05, No Iterations 6
DICPCG:  Solving for p, Initial residual = 0.000235788, Final residual = 2.285419e-06, No Iterations 12
DICPCG:  Solving for p, Initial residual = 4.189867e-05, Final residual = 4.115793e-07, No Iterations 99
time step continuity errors : sum local = 6.422102e-06, global = -4.261022e-07, cumulative = -0.000181937
ExecutionTime = 11.5 s  ClockTime = 12 s

probesFluid : p
    avg: 100039
    min: 100039
    max: 100039

probesFluid : U
    avg: (0.9931934 0.0003484158 -0.0003560005)
    min: (0.9931934 0.0003484158 -0.0003560005)
    max: (0.9931934 0.0003484158 -0.0003560005)

fieldMinMax MinMaxT:region0 write:
    min(mag(U)) = 0 in cell 31649 at location (0.9373242 0.08596811 -0.05038675) on processor 0
[...]
DICPCG:  Solving for p, Initial residual = 9.86903e-08, Final residual = 9.86903e-08, No Iterations 0
time step continuity errors : sum local = 1.586514e-06, global = -9.410156e-08, cumulative = -0.0004645111
ExecutionTime = 164.34 s  ClockTime = 165 s

probesFluid : p
    avg: 100039
    min: 100039
    max: 100039

probesFluid : U
    avg: (0.9933343 0.0004153826 -0.0003274101)
    min: (0.9933343 0.0004153826 -0.0003274101)
    max: (0.9933343 0.0004153826 -0.0003274101)

fieldMinMax MinMaxT:region0 write:
    min(mag(U)) = 0 in cell 31649 at location (0.9373242 0.08596811 -0.05038675) on processor 0
    max(mag(U)) = 1.00104 in cell 30070 at location (0.98 0.003986154 -0.004001051) on processor 0

volFieldValue volAvgFluid write:
    volAverage(region0) of U = (0.5026255 -8.424418e-05 -6.32313e-05)

Time = 1988

smoothSolver:  Solving for Ux, Initial residual = 1.024635e-08, Final residual = 2.581162e-09, No Iterations 1
smoothSolver:  Solving for Uy, Initial residual = 6.781548e-08, Final residual = 6.491035e-09, No Iterations 3
smoothSolver:  Solving for Uz, Initial residual = 6.300072e-08, Final residual = 8.153037e-09, No Iterations 2
DICPCG:  Solving for p, Initial residual = 9.716703e-08, Final residual = 9.716703e-08, No Iterations 0
DICPCG:  Solving for p, Initial residual = 9.716703e-08, Final residual = 9.716703e-08, No Iterations 0
DICPCG:  Solving for p, Initial residual = 9.716703e-08, Final residual = 9.716703e-08, No Iterations 0
time step continuity errors : sum local = 1.562032e-06, global = -1.142625e-07, cumulative = -0.0004646254
ExecutionTime = 164.42 s  ClockTime = 165 s

probesFluid : p
    avg: 100039
    min: 100039
    max: 100039

probesFluid : U
    avg: (0.9933343 0.0004153826 -0.0003274101)
    min: (0.9933343 0.0004153826 -0.0003274101)
    max: (0.9933343 0.0004153826 -0.0003274101)

fieldMinMax MinMaxT:region0 write:
    min(mag(U)) = 0 in cell 31649 at location (0.9373242 0.08596811 -0.05038675) on processor 0
    max(mag(U)) = 1.00104 in cell 30070 at location (0.98 0.003986154 -0.004001051) on processor 0

volFieldValue volAvgFluid write:
    volAverage(region0) of U = (0.5026255 -8.424417e-05 -6.32313e-05)

Time = 1989

smoothSolver:  Solving for Ux, Initial residual = 2.291601e-09, Final residual = 2.291601e-09, No Iterations 0
smoothSolver:  Solving for Uy, Initial residual = 4.01555e-08, Final residual = 6.18718e-09, No Iterations 2
smoothSolver:  Solving for Uz, Initial residual = 4.262807e-08, Final residual = 4.795537e-09, No Iterations 2
DICPCG:  Solving for p, Initial residual = 9.689316e-08, Final residual = 9.689316e-08, No Iterations 0
DICPCG:  Solving for p, Initial residual = 9.689316e-08, Final residual = 9.689316e-08, No Iterations 0
DICPCG:  Solving for p, Initial residual = 9.689316e-08, Final residual = 9.689316e-08, No Iterations 0
time step continuity errors : sum local = 1.557632e-06, global = -1.054654e-07, cumulative = -0.0004647308
ExecutionTime = 164.49 s  ClockTime = 165 s

probesFluid : p
    avg: 100039
    min: 100039
    max: 100039

probesFluid : U
    avg: (0.9933343 0.0004153826 -0.0003274101)
    min: (0.9933343 0.0004153826 -0.0003274101)
    max: (0.9933343 0.0004153826 -0.0003274101)

fieldMinMax MinMaxT:region0 write:
    min(mag(U)) = 0 in cell 31649 at location (0.9373242 0.08596811 -0.05038675) on processor 0
    max(mag(U)) = 1.00104 in cell 30070 at location (0.98 0.003986154 -0.004001051) on processor 0

volFieldValue volAvgFluid write:
    volAverage(region0) of U = (0.5026255 -8.424417e-05 -6.32313e-05)

Time = 1990

smoothSolver:  Solving for Ux, Initial residual = 2.064576e-09, Final residual = 2.064576e-09, No Iterations 0
smoothSolver:  Solving for Uy, Initial residual = 2.051394e-08, Final residual = 6.251046e-09, No Iterations 1
smoothSolver:  Solving for Uz, Initial residual = 2.193365e-08, Final residual = 6.789529e-09, No Iterations 1
DICPCG:  Solving for p, Initial residual = 9.679717e-08, Final residual = 9.679717e-08, No Iterations 0
DICPCG:  Solving for p, Initial residual = 9.679717e-08, Final residual = 9.679717e-08, No Iterations 0
DICPCG:  Solving for p, Initial residual = 9.679717e-08, Final residual = 9.679717e-08, No Iterations 0
time step continuity errors : sum local = 1.556075e-06, global = -1.115733e-07, cumulative = -0.0004648424
ExecutionTime = 164.57 s  ClockTime = 165 s

probesFluid : p
    avg: 100039
    min: 100039
    max: 100039

probesFluid : U
    avg: (0.9933343 0.0004153826 -0.0003274101)
    min: (0.9933343 0.0004153826 -0.0003274101)
    max: (0.9933343 0.0004153826 -0.0003274101)

surfaceFieldValue MassFlowRate_inlet write:
    sum(inlet) of phi = -0.01570224

surfaceFieldValue MassFlowRate_outlet write:
    sum(outlet) of phi = 0.01570223

surfaceFieldValue inletAve_Values write:
    average(inlet) of U = (0.5 0 0)
    average(inlet) of p = 100089.9

surfaceFieldValue outletAve_Values write:
    average(outlet) of U = (0.4551973 -0.001433912 -0.0006329418)
    average(outlet) of p = 100000

fieldMinMax MinMaxT:region0 write:
    min(mag(U)) = 0 in cell 31649 at location (0.9373242 0.08596811 -0.05038675) on processor 0
    max(mag(U)) = 1.00104 in cell 30070 at location (0.98 0.003986154 -0.004001051) on processor 0

volFieldValue volAvgFluid write:
    volAverage(region0) of U = (0.5026255 -8.424417e-05 -6.32313e-05)

Time = 1991

smoothSolver:  Solving for Ux, Initial residual = 1.843918e-09, Final residual = 1.843918e-09, No Iterations 0
smoothSolver:  Solving for Uy, Initial residual = 1.568261e-08, Final residual = 5.621638e-09, No Iterations 1
smoothSolver:  Solving for Uz, Initial residual = 1.566872e-08, Final residual = 4.969402e-09, No Iterations 1
DICPCG:  Solving for p, Initial residual = 9.678442e-08, Final residual = 9.678442e-08, No Iterations 0
DICPCG:  Solving for p, Initial residual = 9.678442e-08, Final residual = 9.678442e-08, No Iterations 0
DICPCG:  Solving for p, Initial residual = 9.678442e-08, Final residual = 9.678442e-08, No Iterations 0
time step continuity errors : sum local = 1.555877e-06, global = -1.050779e-07, cumulative = -0.0004649475
ExecutionTime = 164.64 s  ClockTime = 165 s

probesFluid : p
    avg: 100039
    min: 100039
    max: 100039

probesFluid : U
    avg: (0.9933343 0.0004153826 -0.0003274101)
    min: (0.9933343 0.0004153826 -0.0003274101)
    max: (0.9933343 0.0004153826 -0.0003274101)

fieldMinMax MinMaxT:region0 write:
    min(mag(U)) = 0 in cell 31649 at location (0.9373242 0.08596811 -0.05038675) on processor 0
    max(mag(U)) = 1.00104 in cell 30070 at location (0.98 0.003986154 -0.004001051) on processor 0

volFieldValue volAvgFluid write:
    volAverage(region0) of U = (0.5026255 -8.424417e-05 -6.32313e-05)

Time = 1992

smoothSolver:  Solving for Ux, Initial residual = 1.896154e-09, Final residual = 1.896154e-09, No Iterations 0
smoothSolver:  Solving for Uy, Initial residual = 1.404504e-08, Final residual = 4.688973e-09, No Iterations 1
smoothSolver:  Solving for Uz, Initial residual = 1.442677e-08, Final residual = 4.527443e-09, No Iterations 1
DICPCG:  Solving for p, Initial residual = 9.680675e-08, Final residual = 9.680675e-08, No Iterations 0
DICPCG:  Solving for p, Initial residual = 9.680675e-08, Final residual = 9.680675e-08, No Iterations 0
DICPCG:  Solving for p, Initial residual = 9.680675e-08, Final residual = 9.680675e-08, No Iterations 0
time step continuity errors : sum local = 1.556239e-06, global = -1.111844e-07, cumulative = -0.0004650587
ExecutionTime = 164.74 s  ClockTime = 165 s

probesFluid : p
    avg: 100039
    min: 100039
    max: 100039

probesFluid : U
    avg: (0.9933343 0.0004153826 -0.0003274101)
    min: (0.9933343 0.0004153826 -0.0003274101)
    max: (0.9933343 0.0004153826 -0.0003274101)

fieldMinMax MinMaxT:region0 write:
    min(mag(U)) = 0 in cell 31649 at location (0.9373242 0.08596811 -0.05038675) on processor 0
    max(mag(U)) = 1.00104 in cell 30070 at location (0.98 0.003986154 -0.004001051) on processor 0

volFieldValue volAvgFluid write:
    volAverage(region0) of U = (0.5026255 -8.424416e-05 -6.32313e-05)

Time = 1993

smoothSolver:  Solving for Ux, Initial residual = 2.046073e-09, Final residual = 2.046073e-09, No Iterations 0
smoothSolver:  Solving for Uy, Initial residual = 1.43012e-08, Final residual = 5.281357e-09, No Iterations 1
smoothSolver:  Solving for Uz, Initial residual = 1.373677e-08, Final residual = 4.831428e-09, No Iterations 1
DICPCG:  Solving for p, Initial residual = 9.683582e-08, Final residual = 9.683582e-08, No Iterations 0
DICPCG:  Solving for p, Initial residual = 9.683582e-08, Final residual = 9.683582e-08, No Iterations 0
DICPCG:  Solving for p, Initial residual = 9.683582e-08, Final residual = 9.683582e-08, No Iterations 0
time step continuity errors : sum local = 1.556693e-06, global = -1.045131e-07, cumulative = -0.0004651632
ExecutionTime = 164.82 s  ClockTime = 165 s

probesFluid : p
    avg: 100039
    min: 100039
    max: 100039

probesFluid : U
    avg: (0.9933343 0.0004153826 -0.0003274101)
    min: (0.9933343 0.0004153826 -0.0003274101)
    max: (0.9933343 0.0004153826 -0.0003274101)

fieldMinMax MinMaxT:region0 write:
    min(mag(U)) = 0 in cell 31649 at location (0.9373242 0.08596811 -0.05038675) on processor 0
    max(mag(U)) = 1.00104 in cell 30070 at location (0.98 0.003986154 -0.004001051) on processor 0

volFieldValue volAvgFluid write:
    volAverage(region0) of U = (0.5026255 -8.424416e-05 -6.32313e-05)

Time = 1994

smoothSolver:  Solving for Ux, Initial residual = 2.271735e-09, Final residual = 2.271735e-09, No Iterations 0
smoothSolver:  Solving for Uy, Initial residual = 1.558238e-08, Final residual = 5.426e-09, No Iterations 1
smoothSolver:  Solving for Uz, Initial residual = 1.476431e-08, Final residual = 4.880049e-09, No Iterations 1
DICPCG:  Solving for p, Initial residual = 9.687668e-08, Final residual = 9.687668e-08, No Iterations 0
DICPCG:  Solving for p, Initial residual = 9.687668e-08, Final residual = 9.687668e-08, No Iterations 0
DICPCG:  Solving for p, Initial residual = 9.687668e-08, Final residual = 9.687668e-08, No Iterations 0
time step continuity errors : sum local = 1.557354e-06, global = -1.112289e-07, cumulative = -0.0004652744
ExecutionTime = 164.9 s  ClockTime = 165 s

probesFluid : p
    avg: 100039
    min: 100039
    max: 100039

probesFluid : U
    avg: (0.9933343 0.0004153826 -0.0003274101)
    min: (0.9933343 0.0004153826 -0.0003274101)
    max: (0.9933343 0.0004153826 -0.0003274101)

fieldMinMax MinMaxT:region0 write:
    min(mag(U)) = 0 in cell 31649 at location (0.9373242 0.08596811 -0.05038675) on processor 0
    max(mag(U)) = 1.00104 in cell 30070 at location (0.98 0.003986154 -0.004001051) on processor 0

volFieldValue volAvgFluid write:
    volAverage(region0) of U = (0.5026255 -8.424416e-05 -6.32313e-05)

Time = 1995

smoothSolver:  Solving for Ux, Initial residual = 2.503035e-09, Final residual = 2.503035e-09, No Iterations 0
smoothSolver:  Solving for Uy, Initial residual = 1.678226e-08, Final residual = 6.039383e-09, No Iterations 1
smoothSolver:  Solving for Uz, Initial residual = 1.545497e-08, Final residual = 5.423186e-09, No Iterations 1
DICPCG:  Solving for p, Initial residual = 9.692601e-08, Final residual = 9.692601e-08, No Iterations 0
DICPCG:  Solving for p, Initial residual = 9.692601e-08, Final residual = 9.692601e-08, No Iterations 0
DICPCG:  Solving for p, Initial residual = 9.692601e-08, Final residual = 9.692601e-08, No Iterations 0
time step continuity errors : sum local = 1.558142e-06, global = -1.038926e-07, cumulative = -0.0004653783
ExecutionTime = 164.97 s  ClockTime = 165 s

probesFluid : p
    avg: 100039
    min: 100039
    max: 100039

probesFluid : U
    avg: (0.9933343 0.0004153826 -0.0003274101)
    min: (0.9933343 0.0004153826 -0.0003274101)
    max: (0.9933343 0.0004153826 -0.0003274101)

surfaceFieldValue MassFlowRate_inlet write:
    sum(inlet) of phi = -0.01570224

surfaceFieldValue MassFlowRate_outlet write:
    sum(outlet) of phi = 0.01570223

surfaceFieldValue inletAve_Values write:
    average(inlet) of U = (0.5 0 0)
    average(inlet) of p = 100089.9

surfaceFieldValue outletAve_Values write:
    average(outlet) of U = (0.4551973 -0.001433914 -0.0006329425)
    average(outlet) of p = 100000

fieldMinMax MinMaxT:region0 write:
    min(mag(U)) = 0 in cell 31649 at location (0.9373242 0.08596811 -0.05038675) on processor 0
    max(mag(U)) = 1.00104 in cell 30070 at location (0.98 0.003986154 -0.004001051) on processor 0

volFieldValue volAvgFluid write:
    volAverage(region0) of U = (0.5026255 -8.424416e-05 -6.32313e-05)

Time = 1996

smoothSolver:  Solving for Ux, Initial residual = 2.762436e-09, Final residual = 2.762436e-09, No Iterations 0
smoothSolver:  Solving for Uy, Initial residual = 1.829845e-08, Final residual = 6.420785e-09, No Iterations 1
smoothSolver:  Solving for Uz, Initial residual = 1.695579e-08, Final residual = 5.69234e-09, No Iterations 1
DICPCG:  Solving for p, Initial residual = 9.698188e-08, Final residual = 9.698188e-08, No Iterations 0
DICPCG:  Solving for p, Initial residual = 9.698188e-08, Final residual = 9.698188e-08, No Iterations 0
DICPCG:  Solving for p, Initial residual = 9.698188e-08, Final residual = 9.698188e-08, No Iterations 0
time step continuity errors : sum local = 1.559044e-06, global = -1.115038e-07, cumulative = -0.0004654898
ExecutionTime = 165.04 s  ClockTime = 165 s

probesFluid : p
    avg: 100039
    min: 100039
    max: 100039

probesFluid : U
    avg: (0.9933343 0.0004153826 -0.0003274101)
    min: (0.9933343 0.0004153826 -0.0003274101)
    max: (0.9933343 0.0004153826 -0.0003274101)

fieldMinMax MinMaxT:region0 write:
    min(mag(U)) = 0 in cell 31649 at location (0.9373242 0.08596811 -0.05038675) on processor 0
    max(mag(U)) = 1.00104 in cell 30070 at location (0.98 0.003986154 -0.004001051) on processor 0

volFieldValue volAvgFluid write:
    volAverage(region0) of U = (0.5026255 -8.424416e-05 -6.32313e-05)

Time = 1997

smoothSolver:  Solving for Ux, Initial residual = 3.024743e-09, Final residual = 3.024743e-09, No Iterations 0
smoothSolver:  Solving for Uy, Initial residual = 1.980959e-08, Final residual = 7.029001e-09, No Iterations 1
smoothSolver:  Solving for Uz, Initial residual = 1.815774e-08, Final residual = 6.271466e-09, No Iterations 1
DICPCG:  Solving for p, Initial residual = 9.70397e-08, Final residual = 9.70397e-08, No Iterations 0
DICPCG:  Solving for p, Initial residual = 9.70397e-08, Final residual = 9.70397e-08, No Iterations 0
DICPCG:  Solving for p, Initial residual = 9.70397e-08, Final residual = 9.70397e-08, No Iterations 0
time step continuity errors : sum local = 1.559983e-06, global = -1.031975e-07, cumulative = -0.000465593
ExecutionTime = 165.12 s  ClockTime = 166 s

probesFluid : p
    avg: 100039
    min: 100039
    max: 100039

probesFluid : U
    avg: (0.9933343 0.0004153826 -0.0003274101)
    min: (0.9933343 0.0004153826 -0.0003274101)
    max: (0.9933343 0.0004153826 -0.0003274101)

fieldMinMax MinMaxT:region0 write:
    min(mag(U)) = 0 in cell 31649 at location (0.9373242 0.08596811 -0.05038675) on processor 0
    max(mag(U)) = 1.00104 in cell 30070 at location (0.98 0.003986154 -0.004001051) on processor 0

volFieldValue volAvgFluid write:
    volAverage(region0) of U = (0.5026255 -8.424416e-05 -6.32313e-05)

Time = 1998

smoothSolver:  Solving for Ux, Initial residual = 3.313264e-09, Final residual = 3.313264e-09, No Iterations 0
smoothSolver:  Solving for Uy, Initial residual = 2.151585e-08, Final residual = 7.549922e-09, No Iterations 1
smoothSolver:  Solving for Uz, Initial residual = 1.986479e-08, Final residual = 6.706636e-09, No Iterations 1
DICPCG:  Solving for p, Initial residual = 9.711165e-08, Final residual = 9.711165e-08, No Iterations 0
DICPCG:  Solving for p, Initial residual = 9.711165e-08, Final residual = 9.711165e-08, No Iterations 0
DICPCG:  Solving for p, Initial residual = 9.711165e-08, Final residual = 9.711165e-08, No Iterations 0
time step continuity errors : sum local = 1.56113e-06, global = -1.119473e-07, cumulative = -0.0004657049
ExecutionTime = 165.2 s  ClockTime = 166 s

probesFluid : p
    avg: 100039
    min: 100039
    max: 100039

probesFluid : U
    avg: (0.9933343 0.0004153826 -0.0003274101)
    min: (0.9933343 0.0004153826 -0.0003274101)
    max: (0.9933343 0.0004153826 -0.0003274101)

fieldMinMax MinMaxT:region0 write:
    min(mag(U)) = 0 in cell 31649 at location (0.9373242 0.08596811 -0.05038675) on processor 0
    max(mag(U)) = 1.00104 in cell 30070 at location (0.98 0.003986154 -0.004001051) on processor 0

volFieldValue volAvgFluid write:
    volAverage(region0) of U = (0.5026255 -8.424416e-05 -6.32313e-05)

Time = 1999

smoothSolver:  Solving for Ux, Initial residual = 3.604071e-09, Final residual = 3.604071e-09, No Iterations 0
smoothSolver:  Solving for Uy, Initial residual = 2.32757e-08, Final residual = 8.187187e-09, No Iterations 1
smoothSolver:  Solving for Uz, Initial residual = 2.139989e-08, Final residual = 7.308069e-09, No Iterations 1
DICPCG:  Solving for p, Initial residual = 9.717703e-08, Final residual = 9.717703e-08, No Iterations 0
DICPCG:  Solving for p, Initial residual = 9.717703e-08, Final residual = 9.717703e-08, No Iterations 0
DICPCG:  Solving for p, Initial residual = 9.717703e-08, Final residual = 9.717703e-08, No Iterations 0
time step continuity errors : sum local = 1.562196e-06, global = -1.024062e-07, cumulative = -0.0004658073
ExecutionTime = 165.28 s  ClockTime = 166 s

probesFluid : p
    avg: 100039
    min: 100039
    max: 100039

probesFluid : U
    avg: (0.9933343 0.0004153826 -0.0003274101)
    min: (0.9933343 0.0004153826 -0.0003274101)
    max: (0.9933343 0.0004153826 -0.0003274101)

fieldMinMax MinMaxT:region0 write:
    min(mag(U)) = 0 in cell 31649 at location (0.9373242 0.08596811 -0.05038675) on processor 0
    max(mag(U)) = 1.00104 in cell 30070 at location (0.98 0.003986154 -0.004001051) on processor 0

volFieldValue volAvgFluid write:
    volAverage(region0) of U = (0.5026255 -8.424416e-05 -6.32313e-05)

Time = 2000

smoothSolver:  Solving for Ux, Initial residual = 3.922413e-09, Final residual = 3.922413e-09, No Iterations 0
smoothSolver:  Solving for Uy, Initial residual = 2.519102e-08, Final residual = 8.823333e-09, No Iterations 1
smoothSolver:  Solving for Uz, Initial residual = 2.329545e-08, Final residual = 7.863838e-09, No Iterations 1
DICPCG:  Solving for p, Initial residual = 9.726171e-08, Final residual = 9.726171e-08, No Iterations 0
DICPCG:  Solving for p, Initial residual = 9.726171e-08, Final residual = 9.726171e-08, No Iterations 0
DICPCG:  Solving for p, Initial residual = 9.726171e-08, Final residual = 9.726171e-08, No Iterations 0
time step continuity errors : sum local = 1.563544e-06, global = -1.125415e-07, cumulative = -0.0004659199
ExecutionTime = 165.44 s  ClockTime = 166 s

probesFluid : p
    avg: 100039
    min: 100039
    max: 100039

probesFluid : U
    avg: (0.9933343 0.0004153826 -0.0003274101)
    min: (0.9933343 0.0004153826 -0.0003274101)
    max: (0.9933343 0.0004153826 -0.0003274101)

surfaceFieldValue MassFlowRate_inlet write:
    sum(inlet) of phi = -0.01570224

surfaceFieldValue MassFlowRate_outlet write:
    sum(outlet) of phi = 0.01570223

surfaceFieldValue inletAve_Values write:
    average(inlet) of U = (0.5 0 0)
    average(inlet) of p = 100089.9

surfaceFieldValue outletAve_Values write:
    average(outlet) of U = (0.4551973 -0.001433912 -0.0006329419)
    average(outlet) of p = 100000

fieldMinMax MinMaxT:region0 write:
    min(mag(U)) = 0 in cell 31649 at location (0.9373242 0.08596811 -0.05038675) on processor 0
    max(mag(U)) = 1.00104 in cell 30070 at location (0.98 0.003986154 -0.004001051) on processor 0

volFieldValue volAvgFluid write:
    volAverage(region0) of U = (0.5026255 -8.424416e-05 -6.32313e-05)

End

Finalising parallel run
